>> Output files will be saved to "[1;31m/home/zhouyuchen/work_space/output/accelerate/m5out[0m"!
init core !
text is /home/zhouyuchen/work_space/gem5-with-chinese-comment//configs/example/se.py
code is /home/zhouyuchen/work_space/gem5-with-chinese-comment//build/X86/gem5.opt
The length of mainEventQueue is 1
Index is 0 
The length of mainEventQueue is 2
Index is 1 
gem5 Simulator System.  http://gem5.org
gem5 is copyrighted software; use the --copyright option for details.

gem5 compiled Apr 17 2020 00:00:30
gem5 started Apr 17 2020 00:01:02
gem5 executing on server17, pid 11721
command line: /home/zhouyuchen/work_space/gem5-with-chinese-comment//build/X86/gem5.opt /home/zhouyuchen/work_space/gem5-with-chinese-comment//configs/example/se.py --cpu-type=DerivO3CPU --num-cpus=2 --mem-size=2GB --caches --l1d_size=32kB --l1d_assoc=4 --l1i_size=64kB --l1i_assoc=4 --l2cache --l2_size=256kB --l2_assoc=8 --l3cache --l3_size=8MB --l3_assoc=16 --at-instruction -c 'example/bubble;example/bubble' -o ';'

filecode is <code object <module> at 0x7f62d3ab17b0, file "/home/zhouyuchen/work_space/gem5-with-chinese-comment//configs/example/se.py", line 45>
the program is ['example/bubble']
the number of workload is 1 
the program is ['example/bubble']
the number of workload is 2 
numThreads is 1 
multiprocesses are [<m5.objects.Process.Process object at 0x7f62d37dac90>, <m5.objects.Process.Process object at 0x7f62d3793110>]
CPUClass is DerivO3CPU , test_mem_mode is timing , FutureClass is None
create a thread !
create a thread !
Global frequency set at 1000000000000 ticks per second
The length of mainEventQueue is 2
Index is 0 
Insert SimObjects ! 
The length of mainEventQueue is 2
Index is 0 
Insert SimObjects ! 
The length of mainEventQueue is 2
Index is 0 
Insert SimObjects ! 
The length of mainEventQueue is 2
Index is 0 
Insert SimObjects ! 
The length of mainEventQueue is 2
Index is 0 
Insert SimObjects ! 
The length of mainEventQueue is 2
Index is 0 
Insert SimObjects ! 
The length of mainEventQueue is 2
Index is 0 
Insert SimObjects ! 
The length of mainEventQueue is 2
Index is 0 
Insert SimObjects ! 
The length of mainEventQueue is 2
Index is 0 
Insert SimObjects ! 
The length of mainEventQueue is 2
Index is 0 
Insert SimObjects ! 
The length of mainEventQueue is 2
Index is 0 
Insert SimObjects ! 
The length of mainEventQueue is 2
Index is 0 
Insert SimObjects ! 
The length of mainEventQueue is 2
Index is 0 
Insert SimObjects ! 
The length of mainEventQueue is 2
Index is 0 
Insert SimObjects ! 
The length of mainEventQueue is 2
Index is 0 
Insert SimObjects ! 
The length of mainEventQueue is 2
Index is 0 
Insert SimObjects ! 
The length of mainEventQueue is 2
Index is 0 
Insert SimObjects ! 
The length of mainEventQueue is 2
Index is 0 
Insert SimObjects ! 
The length of mainEventQueue is 2
Index is 0 
Insert SimObjects ! 
The length of mainEventQueue is 2
Index is 0 
Insert SimObjects ! 
The length of mainEventQueue is 2
Index is 0 
Insert SimObjects ! 
The length of mainEventQueue is 2
Index is 0 
Insert SimObjects ! 
The length of mainEventQueue is 2
Index is 0 
Insert SimObjects ! 
The length of mainEventQueue is 2
Index is 0 
Insert SimObjects ! 
The length of mainEventQueue is 2
Index is 0 
Insert SimObjects ! 
The length of mainEventQueue is 2
Index is 0 
Insert SimObjects ! 
The length of mainEventQueue is 2
Index is 0 
Insert SimObjects ! 
The length of mainEventQueue is 2
Index is 0 
Insert SimObjects ! 
The length of mainEventQueue is 2
Index is 0 
Insert SimObjects ! 
The length of mainEventQueue is 2
Index is 0 
Insert SimObjects ! 
The length of mainEventQueue is 2
Index is 0 
Insert SimObjects ! 
The length of mainEventQueue is 2
Index is 0 
Insert SimObjects ! 
The length of mainEventQueue is 2
Index is 0 
Insert SimObjects ! 
The length of mainEventQueue is 2
Index is 0 
Insert SimObjects ! 
The length of mainEventQueue is 2
Index is 0 
Insert SimObjects ! 
The length of mainEventQueue is 2
Index is 0 
Insert SimObjects ! 
The length of mainEventQueue is 2
Index is 0 
Insert SimObjects ! 
The length of mainEventQueue is 2
Index is 0 
Insert SimObjects ! 
The length of mainEventQueue is 2
Index is 0 
Insert SimObjects ! 
The length of mainEventQueue is 2
Index is 0 
Insert SimObjects ! 
The length of mainEventQueue is 2
Index is 0 
Insert SimObjects ! 
The length of mainEventQueue is 2
Index is 0 
Insert SimObjects ! 
The length of mainEventQueue is 2
Index is 0 
Insert SimObjects ! 
The length of mainEventQueue is 2
Index is 0 
Insert SimObjects ! 
The length of mainEventQueue is 2
Index is 0 
Insert SimObjects ! 
The length of mainEventQueue is 2
Index is 0 
Insert SimObjects ! 
The length of mainEventQueue is 2
Index is 0 
Insert SimObjects ! 
The length of mainEventQueue is 2
Index is 0 
Insert SimObjects ! 
The length of mainEventQueue is 2
Index is 0 
Insert SimObjects ! 
The length of mainEventQueue is 2
Index is 0 
Insert SimObjects ! 
The length of mainEventQueue is 2
Index is 0 
Insert SimObjects ! 
The length of mainEventQueue is 2
Index is 0 
Insert SimObjects ! 
The length of mainEventQueue is 2
Index is 0 
Insert SimObjects ! 
The length of mainEventQueue is 2
Index is 0 
Insert SimObjects ! 
The length of mainEventQueue is 2
Index is 0 
Insert SimObjects ! 
The length of mainEventQueue is 2
Index is 0 
Insert SimObjects ! 
The length of mainEventQueue is 2
Index is 0 
Insert SimObjects ! 
The length of mainEventQueue is 2
Index is 0 
Insert SimObjects ! 
The length of mainEventQueue is 2
Index is 0 
Insert SimObjects ! 
The length of mainEventQueue is 2
Index is 0 
Insert SimObjects ! 
The length of mainEventQueue is 2
Index is 0 
Insert SimObjects ! 
The length of mainEventQueue is 2
Index is 0 
Insert SimObjects ! 
The length of mainEventQueue is 2
Index is 0 
Insert SimObjects ! 
The length of mainEventQueue is 2
Index is 0 
Insert SimObjects ! 
The length of mainEventQueue is 2
Index is 0 
Insert SimObjects ! 
The length of mainEventQueue is 2
Index is 0 
Insert SimObjects ! 
The length of mainEventQueue is 2
Index is 0 
Insert SimObjects ! 
The length of mainEventQueue is 2
Index is 0 
Insert SimObjects ! 
The length of mainEventQueue is 2
Index is 0 
Insert SimObjects ! 
The length of mainEventQueue is 2
Index is 0 
Insert SimObjects ! 
The length of mainEventQueue is 2
Index is 0 
Insert SimObjects ! 
The length of mainEventQueue is 2
Index is 0 
Insert SimObjects ! 
The length of mainEventQueue is 2
Index is 0 
Insert SimObjects ! 
The length of mainEventQueue is 2
Index is 0 
Insert SimObjects ! 
The length of mainEventQueue is 2
Index is 0 
Insert SimObjects ! 
The length of mainEventQueue is 2
Index is 0 
Insert SimObjects ! 
====CPU_ID IS 0 ====
 ======The numThreads is 1 =======
The length of mainEventQueue is 2
Index is 0 
Insert SimObjects ! 
The length of mainEventQueue is 2
Index is 0 
Insert SimObjects ! 
The length of mainEventQueue is 2
Index is 0 
Insert SimObjects ! 
The length of mainEventQueue is 2
Index is 0 
Insert SimObjects ! 
The length of mainEventQueue is 2
Index is 0 
Insert SimObjects ! 
The length of mainEventQueue is 2
Index is 0 
Insert SimObjects ! 
The length of mainEventQueue is 2
Index is 0 
Insert SimObjects ! 
The length of mainEventQueue is 2
Index is 0 
Insert SimObjects ! 
The length of mainEventQueue is 2
Index is 0 
Insert SimObjects ! 
The length of mainEventQueue is 2
Index is 0 
Insert SimObjects ! 
The length of mainEventQueue is 2
Index is 0 
Insert SimObjects ! 
The length of mainEventQueue is 2
Index is 0 
Insert SimObjects ! 
The length of mainEventQueue is 2
Index is 0 
Insert SimObjects ! 
The length of mainEventQueue is 2
Index is 0 
Insert SimObjects ! 
The length of mainEventQueue is 2
Index is 0 
Insert SimObjects ! 
The length of mainEventQueue is 2
Index is 0 
Insert SimObjects ! 
The length of mainEventQueue is 2
Index is 0 
Insert SimObjects ! 
The length of mainEventQueue is 2
Index is 0 
Insert SimObjects ! 
The length of mainEventQueue is 2
Index is 0 
Insert SimObjects ! 
The length of mainEventQueue is 2
Index is 0 
Insert SimObjects ! 
The length of mainEventQueue is 2
Index is 0 
Insert SimObjects ! 
The length of mainEventQueue is 2
Index is 0 
Insert SimObjects ! 
The length of mainEventQueue is 2
Index is 0 
Insert SimObjects ! 
The length of mainEventQueue is 2
Index is 0 
Insert SimObjects ! 
The length of mainEventQueue is 2
Index is 0 
Insert SimObjects ! 
The length of mainEventQueue is 2
Index is 0 
Insert SimObjects ! 
The length of mainEventQueue is 2
Index is 0 
Insert SimObjects ! 
The length of mainEventQueue is 2
Index is 0 
Insert SimObjects ! 
The length of mainEventQueue is 2
Index is 0 
Insert SimObjects ! 
The length of mainEventQueue is 2
Index is 0 
Insert SimObjects ! 
The length of mainEventQueue is 2
Index is 0 
Insert SimObjects ! 
The length of mainEventQueue is 2
Index is 0 
Insert SimObjects ! 
The length of mainEventQueue is 2
Index is 0 
Insert SimObjects ! 
The length of mainEventQueue is 2
Index is 0 
Insert SimObjects ! 
The length of mainEventQueue is 2
Index is 0 
Insert SimObjects ! 
The length of mainEventQueue is 2
Index is 0 
Insert SimObjects ! 
The length of mainEventQueue is 2
Index is 0 
Insert SimObjects ! 
The length of mainEventQueue is 2
Index is 0 
Insert SimObjects ! 
The length of mainEventQueue is 2
Index is 0 
Insert SimObjects ! 
The length of mainEventQueue is 2
Index is 0 
Insert SimObjects ! 
The length of mainEventQueue is 2
Index is 0 
Insert SimObjects ! 
The length of mainEventQueue is 2
Index is 0 
Insert SimObjects ! 
The length of mainEventQueue is 2
Index is 0 
Insert SimObjects ! 
The length of mainEventQueue is 2
Index is 0 
Insert SimObjects ! 
The length of mainEventQueue is 2
Index is 0 
Insert SimObjects ! 
The length of mainEventQueue is 2
Index is 0 
Insert SimObjects ! 
The length of mainEventQueue is 2
Index is 0 
Insert SimObjects ! 
The length of mainEventQueue is 2
Index is 0 
Insert SimObjects ! 
The length of mainEventQueue is 2
Index is 0 
Insert SimObjects ! 
The length of mainEventQueue is 2
Index is 0 
Insert SimObjects ! 
The length of mainEventQueue is 2
Index is 0 
Insert SimObjects ! 
The length of mainEventQueue is 2
Index is 0 
Insert SimObjects ! 
The length of mainEventQueue is 2
Index is 0 
Insert SimObjects ! 
The length of mainEventQueue is 2
Index is 0 
Insert SimObjects ! 
The length of mainEventQueue is 2
Index is 0 
Insert SimObjects ! 
The length of mainEventQueue is 2
Index is 0 
Insert SimObjects ! 
The length of mainEventQueue is 2
Index is 0 
Insert SimObjects ! 
The length of mainEventQueue is 2
Index is 0 
Insert SimObjects ! 
The length of mainEventQueue is 2
Index is 0 
Insert SimObjects ! 
The length of mainEventQueue is 2
Index is 0 
Insert SimObjects ! 
The length of mainEventQueue is 2
Index is 0 
Insert SimObjects ! 
The length of mainEventQueue is 2
Index is 0 
Insert SimObjects ! 
The length of mainEventQueue is 2
Index is 0 
Insert SimObjects ! 
The length of mainEventQueue is 2
Index is 0 
Insert SimObjects ! 
The length of mainEventQueue is 2
Index is 0 
Insert SimObjects ! 
The length of mainEventQueue is 2
Index is 0 
Insert SimObjects ! 
The length of mainEventQueue is 2
Index is 0 
Insert SimObjects ! 
The length of mainEventQueue is 2
Index is 0 
Insert SimObjects ! 
The length of mainEventQueue is 2
Index is 0 
Insert SimObjects ! 
The length of mainEventQueue is 2
Index is 0 
Insert SimObjects ! 
The length of mainEventQueue is 2
Index is 0 
Insert SimObjects ! 
The length of mainEventQueue is 2
Index is 0 
Insert SimObjects ! 
The length of mainEventQueue is 2
Index is 0 
Insert SimObjects ! 
The length of mainEventQueue is 2
Index is 0 
Insert SimObjects ! 
The length of mainEventQueue is 2
Index is 0 
Insert SimObjects ! 
The length of mainEventQueue is 2
Index is 0 
Insert SimObjects ! 
The length of mainEventQueue is 2
Index is 0 
Insert SimObjects ! 
The length of mainEventQueue is 2
Index is 0 
Insert SimObjects ! 
The length of mainEventQueue is 2
Index is 0 
Insert SimObjects ! 
The length of mainEventQueue is 2
Index is 0 
Insert SimObjects ! 
The length of mainEventQueue is 2
Index is 0 
Insert SimObjects ! 
The length of mainEventQueue is 2
Index is 0 
Insert SimObjects ! 
The length of mainEventQueue is 2
Index is 0 
Insert SimObjects ! 
The length of mainEventQueue is 2
Index is 0 
Insert SimObjects ! 
The length of mainEventQueue is 2
Index is 0 
Insert SimObjects ! 
The length of mainEventQueue is 2
Index is 0 
Insert SimObjects ! 
The length of mainEventQueue is 2
Index is 0 
Insert SimObjects ! 
The length of mainEventQueue is 2
Index is 0 
Insert SimObjects ! 
The length of mainEventQueue is 2
Index is 0 
Insert SimObjects ! 
The length of mainEventQueue is 2
Index is 0 
Insert SimObjects ! 
The length of mainEventQueue is 2
Index is 0 
Insert SimObjects ! 
====CPU_ID IS 1 ====
 ======The numThreads is 1 =======
The length of mainEventQueue is 2
Index is 0 
Insert SimObjects ! 
The length of mainEventQueue is 2
Index is 0 
Insert SimObjects ! 
The length of mainEventQueue is 2
Index is 0 
Insert SimObjects ! 
The length of mainEventQueue is 2
Index is 0 
Insert SimObjects ! 
The length of mainEventQueue is 2
Index is 0 
Insert SimObjects ! 
The length of mainEventQueue is 2
Index is 0 
Insert SimObjects ! 
The length of mainEventQueue is 2
Index is 0 
Insert SimObjects ! 
The length of mainEventQueue is 2
Index is 0 
Insert SimObjects ! 
The length of mainEventQueue is 2
Index is 0 
Insert SimObjects ! 
The length of mainEventQueue is 2
Index is 0 
Insert SimObjects ! 
The length of mainEventQueue is 2
Index is 0 
Insert SimObjects ! 
The length of mainEventQueue is 2
Index is 0 
Insert SimObjects ! 
The length of mainEventQueue is 2
Index is 0 
Insert SimObjects ! 
The length of mainEventQueue is 2
Index is 0 
Insert SimObjects ! 
The length of mainEventQueue is 2
Index is 0 
Insert SimObjects ! 
The length of mainEventQueue is 2
Index is 0 
Insert SimObjects ! 
The length of mainEventQueue is 2
Index is 0 
Insert SimObjects ! 
The length of mainEventQueue is 2
Index is 0 
Insert SimObjects ! 
The length of mainEventQueue is 2
Index is 0 
Insert SimObjects ! 
The length of mainEventQueue is 2
Index is 0 
Insert SimObjects ! 
The length of mainEventQueue is 2
Index is 0 
Insert SimObjects ! 
The length of mainEventQueue is 2
Index is 0 
Insert SimObjects ! 
The length of mainEventQueue is 2
Index is 0 
Insert SimObjects ! 
The length of mainEventQueue is 2
Index is 0 
Insert SimObjects ! 
The length of mainEventQueue is 2
Index is 0 
Insert SimObjects ! 
The length of mainEventQueue is 2
Index is 0 
Insert SimObjects ! 
The length of mainEventQueue is 2
Index is 0 
Insert SimObjects ! 
The length of mainEventQueue is 2
Index is 0 
Insert SimObjects ! 
The length of mainEventQueue is 2
Index is 0 
Insert SimObjects ! 
The length of mainEventQueue is 2
Index is 0 
Insert SimObjects ! 
The length of mainEventQueue is 2
Index is 0 
Insert SimObjects ! 
The length of mainEventQueue is 2
Index is 0 
The length of mainEventQueue is 2
Index is 1 
from pollevent !
The length of mainEventQueue is 2
Index is 0 
The length of mainEventQueue is 2
Index is 1 
from pollevent !
**** REAL SIMULATION ****
The number of thread is : 2
Now coming to the GlobalEvent schedule function ! 
getCurTick is 0 
num_cycles is 18446744073709551615 
进入Global reschedule !
Entering reschedule 阶段! 
Entering Event_implement reschedule !now the queue is 0 
cur queue is 0 
this == curqueue !
Entering reschedule 阶段! 
Entering Event_implement reschedule !now the queue is 1 
cur queue is 1 
this == curqueue !
There is something wrong with the head !
Now coming to the GlobalEvent schedule function ! 
quantum_event runned 
begin to wait 
wait end 
处理了异步插入！
queue 0 enter if(async_event)!
queue 0 enter if(async_io)!
queue1 enter dosimLoop ! 
处理了异步插入！
tickEvent's Core_ID is 1 ,enter schedule 
 tickEvent's Core_ID is 1 ,enter schedule 
 tickEvent's Core_ID is 1 ,enter schedule 
 tickEvent's Core_ID is 1 ,enter schedule 
 tickEvent's Core_ID is 1 ,enter schedule 
 tickEvent's Core_ID is 1 ,enter schedule 
 tickEvent's Core_ID is 1 ,enter schedule 
 tickEvent's Core_ID is 1 ,enter schedule 
 tickEvent's Core_ID is 1 ,enter schedule 
 tickEvent's Core_ID is 1 ,enter schedule 
 tickEvent's Core_ID is 1 ,enter schedule 
 tickEvent's Core_ID is 1 ,enter schedule 
 tickEvent's Core_ID is 1 ,enter schedule 
 tickEvent's Core_ID is 1 ,enter schedule 
 tickEvent's Core_ID is 1 ,enter schedule 
 tickEvent's Core_ID is 1 ,enter schedule 
 tickEvent's Core_ID is 1 ,enter schedule 
 tickEvent's Core_ID is 1 ,enter schedule 
 tickEvent's Core_ID is 1 ,enter schedule 
 tickEvent's Core_ID is 1 ,enter schedule 
 tickEvent's Core_ID is 1 ,enter schedule 
 tickEvent's Core_ID is 1 ,enter schedule 
 tickEvent's Core_ID is 1 ,enter schedule 
 tickEvent's Core_ID is 1 ,enter schedule 
 tickEvent's Core_ID is 1 ,enter schedule 
 tickEvent's Core_ID is 1 ,enter schedule 
 tickEvent's Core_ID is 1 ,enter schedule 
 tickEvent's Core_ID is 1 ,enter schedule 
 tickEvent's Core_ID is 1 ,enter schedule 
 tickEvent's Core_ID is 1 ,enter schedule 
 tickEvent's Core_ID is 1 ,enter schedule 
 tickEvent's Core_ID is 1 ,enter schedule 
 tickEvent's Core_ID is 1 ,enter schedule 
 tickEvent's Core_ID is 1 ,enter schedule 
 tickEvent's Core_ID is 1 ,enter schedule 
 tickEvent's Core_ID is 1 ,enter schedule 
 tickEvent's Core_ID is 1 ,enter schedule 
 tickEvent's Core_ID is 1 ,enter schedule 
 tickEvent's Core_ID is 1 ,enter schedule 
 tickEvent's Core_ID is 1 ,enter schedule 
 tickEvent's Core_ID is 1 ,enter schedule 
 tickEvent's Core_ID is 1 ,enter schedule 
 tickEvent's Core_ID is 1 ,enter schedule 
 tickEvent's Core_ID is 1 ,enter schedule 
 tickEvent's Core_ID is 1 ,enter schedule 
 tickEvent's Core_ID is 1 ,enter schedule 
 tickEvent's Core_ID is 1 ,enter schedule 
 tickEvent's Core_ID is 1 ,enter schedule 
 tickEvent's Core_ID is 1 ,enter schedule 
 tickEvent's Core_ID is 1 ,enter schedule 
 tickEvent's Core_ID is 1 ,enter schedule 
 tickEvent's Core_ID is 1 ,enter schedule 
 tickEvent's Core_ID is 1 ,enter schedule 
 tickEvent's Core_ID is 1 ,enter schedule 
 tickEvent's Core_ID is 1 ,enter schedule 
 tickEvent's Core_ID is 1 ,enter schedule 
 tickEvent's Core_ID is 1 ,enter schedule 
 tickEvent's Core_ID is 1 ,enter schedule 
 tickEvent's Core_ID is 1 ,enter schedule 
 tickEvent's Core_ID is 1 ,enter schedule 
 tickEvent's Core_ID is 1 ,enter schedule 
 tickEvent's Core_ID is 1 ,enter schedule 
 tickEvent's Core_ID is 1 ,enter schedule 
 tickEvent's Core_ID is 1 ,enter schedule 
 tickEvent's Core_ID is 1 ,enter schedule 
 tickEvent's Core_ID is 1 ,enter schedule 
 tickEvent's Core_ID is 1 ,enter schedule 
 tickEvent's Core_ID is 1 ,enter schedule 
 tickEvent's Core_ID is 1 ,enter schedule 
 tickEvent's Core_ID is 1 ,enter schedule 
 tickEvent's Core_ID is 1 ,enter schedule 
 tickEvent's Core_ID is 1 ,enter schedule 
 tickEvent's Core_ID is 1 ,enter schedule 
 tickEvent's Core_ID is 1 ,enter schedule 
 tickEvent's Core_ID is 1 ,enter schedule 
 tickEvent's Core_ID is 1 ,enter schedule 
 tickEvent's Core_ID is 1 ,enter schedule 
 tickEvent's Core_ID is 1 ,enter schedule 
 tickEvent's Core_ID is 1 ,enter schedule 
 tickEvent's Core_ID is 1 ,enter schedule 
 tickEvent's Core_ID is 1 ,enter schedule 
 tickEvent's Core_ID is 1 ,enter schedule 
 tickEvent's Core_ID is 1 ,enter schedule 
 tickEvent's Core_ID is 1 ,enter schedule 
 tickEvent's Core_ID is 1 ,enter schedule 
 tickEvent's Core_ID is 1 ,enter schedule 
 tickEvent's Core_ID is 1 ,enter schedule 
 tickEvent's Core_ID is 1 ,enter schedule 
 tickEvent's Core_ID is 1 ,enter schedule 
 tickEvent's Core_ID is 1 ,enter schedule 
 tickEvent's Core_ID is 1 ,enter schedule 
 tickEvent's Core_ID is 1 ,enter schedule 
 tickEvent's Core_ID is 1 ,enter schedule 
 tickEvent's Core_ID is 1 ,enter schedule 
 tickEvent's Core_ID is 1 ,enter schedule 
 tickEvent's Core_ID is 1 ,enter schedule 
 tickEvent's Core_ID is 1 ,enter schedule 
 tickEvent's Core_ID is 1 ,enter schedule 
 tickEvent's Core_ID is 1 ,enter schedule 
 tickEvent's Core_ID is 1 ,enter schedule 
 tickEvent's Core_ID is 1 ,enter schedule 
 tickEvent's Core_ID is 1 ,enter schedule 
 tickEvent's Core_ID is 1 ,enter schedule 
 tickEvent's Core_ID is 1 ,enter schedule 
 tickEvent's Core_ID is 1 ,enter schedule 
 tickEvent's Core_ID is 1 ,enter schedule 
 tickEvent's Core_ID is 1 ,enter schedule 
 tickEvent's Core_ID is 1 ,enter schedule 
 tickEvent's Core_ID is 1 ,enter schedule 
 tickEvent's Core_ID is 1 ,enter schedule 
 tickEvent's Core_ID is 1 ,enter schedule 
 tickEvent's Core_ID is 1 ,enter schedule 
 tickEvent's Core_ID is 1 ,enter schedule 
 tickEvent's Core_ID is 1 ,enter schedule 
 tickEvent's Core_ID is 1 ,enter schedule 
 tickEvent's Core_ID is 1 ,enter schedule 
 tickEvent's Core_ID is 1 ,enter schedule 
 tickEvent's Core_ID is 1 ,enter schedule 
 tickEvent's Core_ID is 1 ,enter schedule 
 tickEvent's Core_ID is 1 ,enter schedule 
 tickEvent's Core_ID is 1 ,enter schedule 
 tickEvent's Core_ID is 1 ,enter schedule 
 tickEvent's Core_ID is 1 ,enter schedule 
 tickEvent's Core_ID is 1 ,enter schedule 
 tickEvent's Core_ID is 1 ,enter schedule 
 tickEvent's Core_ID is 1 ,enter schedule 
 tickEvent's Core_ID is 1 ,enter schedule 
 tickEvent's Core_ID is 1 ,enter schedule 
 tickEvent's Core_ID is 1 ,enter schedule 
 tickEvent's Core_ID is 1 ,enter schedule 
 tickEvent's Core_ID is 1 ,enter schedule 
 tickEvent's Core_ID is 1 ,enter schedule 
 tickEvent's Core_ID is 1 ,enter schedule 
 tickEvent's Core_ID is 1 ,enter schedule 
 tickEvent's Core_ID is 1 ,enter schedule 
 tickEvent's Core_ID is 1 ,enter schedule 
 tickEvent's Core_ID is 1 ,enter schedule 
 tickEvent's Core_ID is 1 ,enter schedule 
 tickEvent's Core_ID is 1 ,enter schedule 
 tickEvent's Core_ID is 1 ,enter schedule 
 tickEvent's Core_ID is 1 ,enter schedule 
 tickEvent's Core_ID is 1 ,enter schedule 
 tickEvent's Core_ID is 1 ,enter schedule 
 tickEvent's Core_ID is 1 ,enter schedule 
 tickEvent's Core_ID is 1 ,enter schedule 
 tickEvent's Core_ID is 1 ,enter schedule 
 tickEvent's Core_ID is 1 ,enter schedule 
 tickEvent's Core_ID is 1 ,enter schedule 
 tickEvent's Core_ID is 1 ,enter schedule 
 tickEvent's Core_ID is 1 ,enter schedule 
 tickEvent's Core_ID is 1 ,enter schedule 
 tickEvent's Core_ID is 1 ,enter schedule 
 tickEvent's Core_ID is 1 ,enter schedule 
 tickEvent's Core_ID is 1 ,enter schedule 
 tickEvent's Core_ID is 1 ,enter schedule 
 tickEvent's Core_ID is 1 ,enter schedule 
 tickEvent's Core_ID is 1 ,enter schedule 
 tickEvent's Core_ID is 1 ,enter schedule 
 tickEvent's Core_ID is 1 ,enter schedule 
 tickEvent's Core_ID is 1 ,enter schedule 
 tickEvent's Core_ID is 1 ,enter schedule 
 tickEvent's Core_ID is 1 ,enter schedule 
 tickEvent's Core_ID is 1 ,enter schedule 
 Entering Event_implement reschedule !now the queue is 0 
cur queue is 0 
this == curqueue !
tickEvent's Core_ID is 1 ,enter schedule 
 tickEvent's Core_ID is 1 ,enter schedule 
 tickEvent's Core_ID is 1 ,enter schedule 
 tickEvent's Core_ID is 1 ,enter schedule 
 tickEvent's Core_ID is 1 ,enter schedule 
 tickEvent's Core_ID is 1 ,enter schedule 
 tickEvent's Core_ID is 1 ,enter schedule 
 tickEvent's Core_ID is 1 ,enter schedule 
 tickEvent's Core_ID is 1 ,enter schedule 
 tickEvent's Core_ID is 1 ,enter schedule 
 tickEvent's Core_ID is 1 ,enter schedule 
 tickEvent's Core_ID is 1 ,enter schedule 
 tickEvent's Core_ID is 1 ,enter schedule 
 tickEvent's Core_ID is 1 ,enter schedule 
 tickEvent's Core_ID is 1 ,enter schedule 
 tickEvent's Core_ID is 1 ,enter schedule 
 tickEvent's Core_ID is 1 ,enter schedule 
 tickEvent's Core_ID is 1 ,enter schedule 
 tickEvent's Core_ID is 1 ,enter schedule 
 tickEvent's Core_ID is 1 ,enter schedule 
 tickEvent's Core_ID is 1 ,enter schedule 
 tickEvent's Core_ID is 1 ,enter schedule 
 tickEvent's Core_ID is 1 ,enter schedule 
 tickEvent's Core_ID is 1 ,enter schedule 
 tickEvent's Core_ID is 1 ,enter schedule 
 tickEvent's Core_ID is 1 ,enter schedule 
 tickEvent's Core_ID is 1 ,enter schedule 
 tickEvent's Core_ID is 1 ,enter schedule 
 tickEvent's Core_ID is 1 ,enter schedule 
 tickEvent's Core_ID is 1 ,enter schedule 
 tickEvent's Core_ID is 1 ,enter schedule 
 tickEvent's Core_ID is 1 ,enter schedule 
 tickEvent's Core_ID is 1 ,enter schedule 
 tickEvent's Core_ID is 1 ,enter schedule 
 tickEvent's Core_ID is 1 ,enter schedule 
 tickEvent's Core_ID is 1 ,enter schedule 
 tickEvent's Core_ID is 1 ,enter schedule 
 tickEvent's Core_ID is 1 ,enter schedule 
 tickEvent's Core_ID is 1 ,enter schedule 
 tickEvent's Core_ID is 1 ,enter schedule 
 tickEvent's Core_ID is 1 ,enter schedule 
 tickEvent's Core_ID is 1 ,enter schedule 
 tickEvent's Core_ID is 1 ,enter schedule 
 tickEvent's Core_ID is 1 ,enter schedule 
 tickEvent's Core_ID is 1 ,enter schedule 
 tickEvent's Core_ID is 1 ,enter schedule 
 tickEvent's Core_ID is 1 ,enter schedule 
 tickEvent's Core_ID is 1 ,enter schedule 
 tickEvent's Core_ID is 1 ,enter schedule 
 tickEvent's Core_ID is 1 ,enter schedule 
 tickEvent's Core_ID is 1 ,enter schedule 
 tickEvent's Core_ID is 1 ,enter schedule 
 tickEvent's Core_ID is 1 ,enter schedule 
 tickEvent's Core_ID is 1 ,enter schedule 
 tickEvent's Core_ID is 1 ,enter schedule 
 tickEvent's Core_ID is 1 ,enter schedule 
 Entering Event_implement reschedule !now the queue is 0 
cur queue is 0 
this == curqueue !
tickEvent's Core_ID is 1 ,enter schedule 
 tickEvent's Core_ID is 1 ,enter schedule 
 Entering Event_implement reschedule !now the queue is 0 
cur queue is 0 
this == curqueue !
tickEvent's Core_ID is 1 ,enter schedule 
 tickEvent's Core_ID is 1 ,enter schedule 
 tickEvent's Core_ID is 1 ,enter schedule 
 tickEvent's Core_ID is 1 ,enter schedule 
 tickEvent's Core_ID is 1 ,enter schedule 
 tickEvent's Core_ID is 1 ,enter schedule 
 tickEvent's Core_ID is 1 ,enter schedule 
 tickEvent's Core_ID is 1 ,enter schedule 
 tickEvent's Core_ID is 1 ,enter schedule 
 tickEvent's Core_ID is 1 ,enter schedule 
 tickEvent's Core_ID is 1 ,enter schedule 
 tickEvent's Core_ID is 1 ,enter schedule 
 tickEvent's Core_ID is 1 ,enter schedule 
 tickEvent's Core_ID is 1 ,enter schedule 
 tickEvent's Core_ID is 1 ,enter schedule 
 tickEvent's Core_ID is 1 ,enter schedule 
 tickEvent's Core_ID is 1 ,enter schedule 
 tickEvent's Core_ID is 1 ,enter schedule 
 tickEvent's Core_ID is 1 ,enter schedule 
 tickEvent's Core_ID is 1 ,enter schedule 
 tickEvent's Core_ID is 1 ,enter schedule 
 tickEvent's Core_ID is 1 ,enter schedule 
 tickEvent's Core_ID is 1 ,enter schedule 
 tickEvent's Core_ID is 1 ,enter schedule 
 tickEvent's Core_ID is 1 ,enter schedule 
 tickEvent's Core_ID is 1 ,enter schedule 
 tickEvent's Core_ID is 1 ,enter schedule 
 tickEvent's Core_ID is 1 ,enter schedule 
 tickEvent's Core_ID is 1 ,enter schedule 
 tickEvent's Core_ID is 1 ,enter schedule 
 tickEvent's Core_ID is 1 ,enter schedule 
 tickEvent's Core_ID is 1 ,enter schedule 
 tickEvent's Core_ID is 1 ,enter schedule 
 tickEvent's Core_ID is 1 ,enter schedule 
 tickEvent's Core_ID is 1 ,enter schedule 
 tickEvent's Core_ID is 1 ,enter schedule 
 tickEvent's Core_ID is 1 ,enter schedule 
 tickEvent's Core_ID is 1 ,enter schedule 
 tickEvent's Core_ID is 1 ,enter schedule 
 tickEvent's Core_ID is 1 ,enter schedule 
 tickEvent's Core_ID is 1 ,enter schedule 
 tickEvent's Core_ID is 1 ,enter schedule 
 tickEvent's Core_ID is 1 ,enter schedule 
 tickEvent's Core_ID is 1 ,enter schedule 
 tickEvent's Core_ID is 1 ,enter schedule 
 tickEvent's Core_ID is 1 ,enter schedule 
 tickEvent's Core_ID is 1 ,enter schedule 
 tickEvent's Core_ID is 1 ,enter schedule 
 tickEvent's Core_ID is 1 ,enter schedule 
 tickEvent's Core_ID is 1 ,enter schedule 
 tickEvent's Core_ID is 1 ,enter schedule 
 tickEvent's Core_ID is 1 ,enter schedule 
 tickEvent's Core_ID is 1 ,enter schedule 
 tickEvent's Core_ID is 1 ,enter schedule 
 tickEvent's Core_ID is 1 ,enter schedule 
 tickEvent's Core_ID is 1 ,enter schedule 
 tickEvent's Core_ID is 1 ,enter schedule 
 tickEvent's Core_ID is 1 ,enter schedule 
 tickEvent's Core_ID is 1 ,enter schedule 
 tickEvent's Core_ID is 1 ,enter schedule 
 tickEvent's Core_ID is 1 ,enter schedule 
 tickEvent's Core_ID is 1 ,enter schedule 
 tickEvent's Core_ID is 1 ,enter schedule 
 tickEvent's Core_ID is 1 ,enter schedule 
 tickEvent's Core_ID is 1 ,enter schedule 
 tickEvent's Core_ID is 1 ,enter schedule 
 tickEvent's Core_ID is 1 ,enter schedule 
 tickEvent's Core_ID is 1 ,enter schedule 
 tickEvent's Core_ID is 1 ,enter schedule 
 tickEvent's Core_ID is 1 ,enter schedule 
 tickEvent's Core_ID is 1 ,enter schedule 
 tickEvent's Core_ID is 1 ,enter schedule 
 tickEvent's Core_ID is 1 ,enter schedule 
 tickEvent's Core_ID is 1 ,enter schedule 
 tickEvent's Core_ID is 1 ,enter schedule 
 tickEvent's Core_ID is 1 ,enter schedule 
 tickEvent's Core_ID is 1 ,enter schedule 
 tickEvent's Core_ID is 1 ,enter schedule 
 tickEvent's Core_ID is 1 ,enter schedule 
 tickEvent's Core_ID is 1 ,enter schedule 
 tickEvent's Core_ID is 1 ,enter schedule 
 tickEvent's Core_ID is 1 ,enter schedule 
 tickEvent's Core_ID is 1 ,enter schedule 
 tickEvent's Core_ID is 1 ,enter schedule 
 tickEvent's Core_ID is 1 ,enter schedule 
 tickEvent's Core_ID is 1 ,enter schedule 
 tickEvent's Core_ID is 1 ,enter schedule 
 tickEvent's Core_ID is 1 ,enter schedule 
 tickEvent's Core_ID is 1 ,enter schedule 
 tickEvent's Core_ID is 1 ,enter schedule 
 tickEvent's Core_ID is 1 ,enter schedule 
 tickEvent's Core_ID is 1 ,enter schedule 
 tickEvent's Core_ID is 1 ,enter schedule 
 tickEvent's Core_ID is 1 ,enter schedule 
 tickEvent's Core_ID is 1 ,enter schedule 
 tickEvent's Core_ID is 1 ,enter schedule 
 tickEvent's Core_ID is 1 ,enter schedule 
 tickEvent's Core_ID is 1 ,enter schedule 
 tickEvent's Core_ID is 1 ,enter schedule 
 tickEvent's Core_ID is 1 ,enter schedule 
 tickEvent's Core_ID is 1 ,enter schedule 
 tickEvent's Core_ID is 1 ,enter schedule 
 tickEvent's Core_ID is 1 ,enter schedule 
 tickEvent's Core_ID is 1 ,enter schedule 
 tickEvent's Core_ID is 1 ,enter schedule 
 tickEvent's Core_ID is 1 ,enter schedule 
 tickEvent's Core_ID is 1 ,enter schedule 
 tickEvent's Core_ID is 1 ,enter schedule 
 tickEvent's Core_ID is 1 ,enter schedule 
 tickEvent's Core_ID is 1 ,enter schedule 
 tickEvent's Core_ID is 1 ,enter schedule 
 tickEvent's Core_ID is 1 ,enter schedule 
 tickEvent's Core_ID is 1 ,enter schedule 
 tickEvent's Core_ID is 1 ,enter schedule 
 tickEvent's Core_ID is 1 ,enter schedule 
 tickEvent's Core_ID is 1 ,enter schedule 
 tickEvent's Core_ID is 1 ,enter schedule 
 tickEvent's Core_ID is 1 ,enter schedule 
 tickEvent's Core_ID is 1 ,enter schedule 
 tickEvent's Core_ID is 1 ,enter schedule 
 tickEvent's Core_ID is 1 ,enter schedule 
 tickEvent's Core_ID is 1 ,enter schedule 
 tickEvent's Core_ID is 1 ,enter schedule 
 tickEvent's Core_ID is 1 ,enter schedule 
 tickEvent's Core_ID is 1 ,enter schedule 
 tickEvent's Core_ID is 1 ,enter schedule 
 tickEvent's Core_ID is 1 ,enter schedule 
 tickEvent's Core_ID is 1 ,enter schedule 
 tickEvent's Core_ID is 1 ,enter schedule 
 tickEvent's Core_ID is 1 ,enter schedule 
 tickEvent's Core_ID is 1 ,enter schedule 
 tickEvent's Core_ID is 1 ,enter schedule 
 tickEvent's Core_ID is 1 ,enter schedule 
 tickEvent's Core_ID is 1 ,enter schedule 
 tickEvent's Core_ID is 1 ,enter schedule 
 tickEvent's Core_ID is 1 ,enter schedule 
 tickEvent's Core_ID is 1 ,enter schedule 
 tickEvent's Core_ID is 1 ,enter schedule 
 tickEvent's Core_ID is 1 ,enter schedule 
 tickEvent's Core_ID is 1 ,enter schedule 
 tickEvent's Core_ID is 1 ,enter schedule 
 tickEvent's Core_ID is 1 ,enter schedule 
 tickEvent's Core_ID is 1 ,enter schedule 
 tickEvent's Core_ID is 1 ,enter schedule 
 tickEvent's Core_ID is 1 ,enter schedule 
 tickEvent's Core_ID is 1 ,enter schedule 
 tickEvent's Core_ID is 1 ,enter schedule 
 tickEvent's Core_ID is 1 ,enter schedule 
 tickEvent's Core_ID is 1 ,enter schedule 
 tickEvent's Core_ID is 1 ,enter schedule 
 tickEvent's Core_ID is 1 ,enter schedule 
 tickEvent's Core_ID is 1 ,enter schedule 
 tickEvent's Core_ID is 1 ,enter schedule 
 tickEvent's Core_ID is 1 ,enter schedule 
 tickEvent's Core_ID is 1 ,enter schedule 
 tickEvent's Core_ID is 1 ,enter schedule 
 tickEvent's Core_ID is 1 ,enter schedule 
 tickEvent's Core_ID is 1 ,enter schedule 
 tickEvent's Core_ID is 1 ,enter schedule 
 tickEvent's Core_ID is 1 ,enter schedule 
 tickEvent's Core_ID is 1 ,enter schedule 
 tickEvent's Core_ID is 1 ,enter schedule 
 tickEvent's Core_ID is 1 ,enter schedule 
 tickEvent's Core_ID is 1 ,enter schedule 
 tickEvent's Core_ID is 1 ,enter schedule 
 tickEvent's Core_ID is 1 ,enter schedule 
 tickEvent's Core_ID is 1 ,enter schedule 
 tickEvent's Core_ID is 1 ,enter schedule 
 tickEvent's Core_ID is 1 ,enter schedule 
 tickEvent's Core_ID is 1 ,enter schedule 
 tickEvent's Core_ID is 1 ,enter schedule 
 tickEvent's Core_ID is 1 ,enter schedule 
 tickEvent's Core_ID is 1 ,enter schedule 
 tickEvent's Core_ID is 1 ,enter schedule 
 tickEvent's Core_ID is 1 ,enter schedule 
 tickEvent's Core_ID is 1 ,enter schedule 
 tickEvent's Core_ID is 1 ,enter schedule 
 tickEvent's Core_ID is 1 ,enter schedule 
 tickEvent's Core_ID is 1 ,enter schedule 
 tickEvent's Core_ID is 1 ,enter schedule 
 tickEvent's Core_ID is 1 ,enter schedule 
 tickEvent's Core_ID is 1 ,enter schedule 
 tickEvent's Core_ID is 1 ,enter schedule 
 tickEvent's Core_ID is 1 ,enter schedule 
 tickEvent's Core_ID is 1 ,enter schedule 
 tickEvent's Core_ID is 1 ,enter schedule 
 tickEvent's Core_ID is 1 ,enter schedule 
 tickEvent's Core_ID is 1 ,enter schedule 
 tickEvent's Core_ID is 1 ,enter schedule 
 tickEvent's Core_ID is 1 ,enter schedule 
 tickEvent's Core_ID is 1 ,enter schedule 
 tickEvent's Core_ID is 1 ,enter schedule 
 tickEvent's Core_ID is 1 ,enter schedule 
 tickEvent's Core_ID is 1 ,enter schedule 
 tickEvent's Core_ID is 1 ,enter schedule 
 tickEvent's Core_ID is 1 ,enter schedule 
 tickEvent's Core_ID is 1 ,enter schedule 
 tickEvent's Core_ID is 1 ,enter schedule 
 tickEvent's Core_ID is 1 ,enter schedule 
 tickEvent's Core_ID is 1 ,enter schedule 
 tickEvent's Core_ID is 1 ,enter schedule 
 tickEvent's Core_ID is 1 ,enter schedule 
 tickEvent's Core_ID is 1 ,enter schedule 
 tickEvent's Core_ID is 1 ,enter schedule 
 tickEvent's Core_ID is 1 ,enter schedule 
 tickEvent's Core_ID is 1 ,enter schedule 
 tickEvent's Core_ID is 1 ,enter schedule 
 tickEvent's Core_ID is 1 ,enter schedule 
 tickEvent's Core_ID is 1 ,enter schedule 
 tickEvent's Core_ID is 1 ,enter schedule 
 tickEvent's Core_ID is 1 ,enter schedule 
 tickEvent's Core_ID is 1 ,enter schedule 
 tickEvent's Core_ID is 1 ,enter schedule 
 tickEvent's Core_ID is 1 ,enter schedule 
 tickEvent's Core_ID is 1 ,enter schedule 
 tickEvent's Core_ID is 1 ,enter schedule 
 tickEvent's Core_ID is 1 ,enter schedule 
 tickEvent's Core_ID is 1 ,enter schedule 
 tickEvent's Core_ID is 1 ,enter schedule 
 tickEvent's Core_ID is 1 ,enter schedule 
 tickEvent's Core_ID is 1 ,enter schedule 
 tickEvent's Core_ID is 1 ,enter schedule 
 tickEvent's Core_ID is 1 ,enter schedule 
 tickEvent's Core_ID is 1 ,enter schedule 
 tickEvent's Core_ID is 1 ,enter schedule 
 tickEvent's Core_ID is 1 ,enter schedule 
 tickEvent's Core_ID is 1 ,enter schedule 
 tickEvent's Core_ID is 1 ,enter schedule 
 tickEvent's Core_ID is 1 ,enter schedule 
 tickEvent's Core_ID is 1 ,enter schedule 
 tickEvent's Core_ID is 1 ,enter schedule 
 tickEvent's Core_ID is 1 ,enter schedule 
 tickEvent's Core_ID is 1 ,enter schedule 
 tickEvent's Core_ID is 1 ,enter schedule 
 tickEvent's Core_ID is 1 ,enter schedule 
 tickEvent's Core_ID is 1 ,enter schedule 
 tickEvent's Core_ID is 1 ,enter schedule 
 tickEvent's Core_ID is 1 ,enter schedule 
 tickEvent's Core_ID is 1 ,enter schedule 
 tickEvent's Core_ID is 1 ,enter schedule 
 tickEvent's Core_ID is 1 ,enter schedule 
 tickEvent's Core_ID is 1 ,enter schedule 
 tickEvent's Core_ID is 1 ,enter schedule 
 tickEvent's Core_ID is 1 ,enter schedule 
 tickEvent's Core_ID is 1 ,enter schedule 
 tickEvent's Core_ID is 1 ,enter schedule 
 tickEvent's Core_ID is 1 ,enter schedule 
 tickEvent's Core_ID is 1 ,enter schedule 
 tickEvent's Core_ID is 1 ,enter schedule 
 tickEvent's Core_ID is 1 ,enter schedule 
 tickEvent's Core_ID is 1 ,enter schedule 
 tickEvent's Core_ID is 1 ,enter schedule 
 tickEvent's Core_ID is 1 ,enter schedule 
 tickEvent's Core_ID is 1 ,enter schedule 
 tickEvent's Core_ID is 1 ,enter schedule 
 tickEvent's Core_ID is 1 ,enter schedule 
 tickEvent's Core_ID is 1 ,enter schedule 
 tickEvent's Core_ID is 1 ,enter schedule 
 tickEvent's Core_ID is 1 ,enter schedule 
 tickEvent's Core_ID is 1 ,enter schedule 
 tickEvent's Core_ID is 1 ,enter schedule 
 tickEvent's Core_ID is 1 ,enter schedule 
 tickEvent's Core_ID is 1 ,enter schedule 
 tickEvent's Core_ID is 1 ,enter schedule 
 tickEvent's Core_ID is 1 ,enter schedule 
 tickEvent's Core_ID is 1 ,enter schedule 
 tickEvent's Core_ID is 1 ,enter schedule 
 tickEvent's Core_ID is 1 ,enter schedule 
 tickEvent's Core_ID is 1 ,enter schedule 
 tickEvent's Core_ID is 1 ,enter schedule 
 tickEvent's Core_ID is 1 ,enter schedule 
 tickEvent's Core_ID is 1 ,enter schedule 
 tickEvent's Core_ID is 1 ,enter schedule 
 tickEvent's Core_ID is 1 ,enter schedule 
 tickEvent's Core_ID is 1 ,enter schedule 
 tickEvent's Core_ID is 1 ,enter schedule 
 tickEvent's Core_ID is 1 ,enter schedule 
 tickEvent's Core_ID is 1 ,enter schedule 
 tickEvent's Core_ID is 1 ,enter schedule 
 tickEvent's Core_ID is 1 ,enter schedule 
 tickEvent's Core_ID is 1 ,enter schedule 
 tickEvent's Core_ID is 1 ,enter schedule 
 tickEvent's Core_ID is 1 ,enter schedule 
 tickEvent's Core_ID is 1 ,enter schedule 
 tickEvent's Core_ID is 1 ,enter schedule 
 tickEvent's Core_ID is 1 ,enter schedule 
 tickEvent's Core_ID is 1 ,enter schedule 
 tickEvent's Core_ID is 1 ,enter schedule 
 tickEvent's Core_ID is 1 ,enter schedule 
 tickEvent's Core_ID is 1 ,enter schedule 
 tickEvent's Core_ID is 1 ,enter schedule 
 tickEvent's Core_ID is 1 ,enter schedule 
 tickEvent's Core_ID is 1 ,enter schedule 
 tickEvent's Core_ID is 1 ,enter schedule 
 tickEvent's Core_ID is 1 ,enter schedule 
 tickEvent's Core_ID is 1 ,enter schedule 
 tickEvent's Core_ID is 1 ,enter schedule 
 tickEvent's Core_ID is 1 ,enter schedule 
 tickEvent's Core_ID is 1 ,enter schedule 
 tickEvent's Core_ID is 1 ,enter schedule 
 tickEvent's Core_ID is 1 ,enter schedule 
 tickEvent's Core_ID is 1 ,enter schedule 
 tickEvent's Core_ID is 1 ,enter schedule 
 tickEvent's Core_ID is 1 ,enter schedule 
 tickEvent's Core_ID is 1 ,enter schedule 
 tickEvent's Core_ID is 1 ,enter schedule 
 tickEvent's Core_ID is 1 ,enter schedule 
 tickEvent's Core_ID is 1 ,enter schedule 
 tickEvent's Core_ID is 1 ,enter schedule 
 tickEvent's Core_ID is 1 ,enter schedule 
 tickEvent's Core_ID is 1 ,enter schedule 
 tickEvent's Core_ID is 1 ,enter schedule 
 tickEvent's Core_ID is 1 ,enter schedule 
 tickEvent's Core_ID is 1 ,enter schedule 
 tickEvent's Core_ID is 1 ,enter schedule 
 tickEvent's Core_ID is 1 ,enter schedule 
 tickEvent's Core_ID is 1 ,enter schedule 
 tickEvent's Core_ID is 1 ,enter schedule 
 tickEvent's Core_ID is 1 ,enter schedule 
 tickEvent's Core_ID is 1 ,enter schedule 
 tickEvent's Core_ID is 1 ,enter schedule 
 tickEvent's Core_ID is 1 ,enter schedule 
 tickEvent's Core_ID is 1 ,enter schedule 
 tickEvent's Core_ID is 1 ,enter schedule 
 tickEvent's Core_ID is 1 ,enter schedule 
 tickEvent's Core_ID is 1 ,enter schedule 
 tickEvent's Core_ID is 1 ,enter schedule 
 tickEvent's Core_ID is 1 ,enter schedule 
 tickEvent's Core_ID is 1 ,enter schedule 
 tickEvent's Core_ID is 1 ,enter schedule 
 tickEvent's Core_ID is 1 ,enter schedule 
 tickEvent's Core_ID is 1 ,enter schedule 
 tickEvent's Core_ID is 1 ,enter schedule 
 tickEvent's Core_ID is 1 ,enter schedule 
 tickEvent's Core_ID is 1 ,enter schedule 
 tickEvent's Core_ID is 1 ,enter schedule 
 tickEvent's Core_ID is 1 ,enter schedule 
 tickEvent's Core_ID is 1 ,enter schedule 
 tickEvent's Core_ID is 1 ,enter schedule 
 tickEvent's Core_ID is 1 ,enter schedule 
 tickEvent's Core_ID is 1 ,enter schedule 
 tickEvent's Core_ID is 1 ,enter schedule 
 tickEvent's Core_ID is 1 ,enter schedule 
 tickEvent's Core_ID is 1 ,enter schedule 
 tickEvent's Core_ID is 1 ,enter schedule 
 tickEvent's Core_ID is 1 ,enter schedule 
 tickEvent's Core_ID is 1 ,enter schedule 
 tickEvent's Core_ID is 1 ,enter schedule 
 tickEvent's Core_ID is 1 ,enter schedule 
 tickEvent's Core_ID is 1 ,enter schedule 
 tickEvent's Core_ID is 1 ,enter schedule 
 tickEvent's Core_ID is 1 ,enter schedule 
 tickEvent's Core_ID is 1 ,enter schedule 
 tickEvent's Core_ID is 1 ,enter schedule 
 tickEvent's Core_ID is 1 ,enter schedule 
 tickEvent's Core_ID is 1 ,enter schedule 
 tickEvent's Core_ID is 1 ,enter schedule 
 tickEvent's Core_ID is 1 ,enter schedule 
 tickEvent's Core_ID is 1 ,enter schedule 
 tickEvent's Core_ID is 1 ,enter schedule 
 tickEvent's Core_ID is 1 ,enter schedule 
 tickEvent's Core_ID is 1 ,enter schedule 
 tickEvent's Core_ID is 1 ,enter schedule 
 tickEvent's Core_ID is 1 ,enter schedule 
 tickEvent's Core_ID is 1 ,enter schedule 
 tickEvent's Core_ID is 1 ,enter schedule 
 tickEvent's Core_ID is 1 ,enter schedule 
 tickEvent's Core_ID is 1 ,enter schedule 
 tickEvent's Core_ID is 1 ,enter schedule 
 tickEvent's Core_ID is 1 ,enter schedule 
 tickEvent's Core_ID is 1 ,enter schedule 
 tickEvent's Core_ID is 1 ,enter schedule 
 tickEvent's Core_ID is 1 ,enter schedule 
 tickEvent's Core_ID is 1 ,enter schedule 
 tickEvent's Core_ID is 1 ,enter schedule 
 tickEvent's Core_ID is 1 ,enter schedule 
 tickEvent's Core_ID is 1 ,enter schedule 
 tickEvent's Core_ID is 1 ,enter schedule 
 tickEvent's Core_ID is 1 ,enter schedule 
 tickEvent's Core_ID is 1 ,enter schedule 
 tickEvent's Core_ID is 1 ,enter schedule 
 tickEvent's Core_ID is 1 ,enter schedule 
 tickEvent's Core_ID is 1 ,enter schedule 
 tickEvent's Core_ID is 1 ,enter schedule 
 tickEvent's Core_ID is 1 ,enter schedule 
 tickEvent's Core_ID is 1 ,enter schedule 
 tickEvent's Core_ID is 1 ,enter schedule 
 tickEvent's Core_ID is 1 ,enter schedule 
 tickEvent's Core_ID is 1 ,enter schedule 
 tickEvent's Core_ID is 1 ,enter schedule 
 tickEvent's Core_ID is 1 ,enter schedule 
 tickEvent's Core_ID is 1 ,enter schedule 
 tickEvent's Core_ID is 1 ,enter schedule 
 tickEvent's Core_ID is 1 ,enter schedule 
 tickEvent's Core_ID is 1 ,enter schedule 
 tickEvent's Core_ID is 1 ,enter schedule 
 tickEvent's Core_ID is 1 ,enter schedule 
 tickEvent's Core_ID is 1 ,enter schedule 
 tickEvent's Core_ID is 1 ,enter schedule 
 tickEvent's Core_ID is 1 ,enter schedule 
 tickEvent's Core_ID is 1 ,enter schedule 
 tickEvent's Core_ID is 1 ,enter schedule 
 tickEvent's Core_ID is 1 ,enter schedule 
 tickEvent's Core_ID is 1 ,enter schedule 
 tickEvent's Core_ID is 1 ,enter schedule 
 tickEvent's Core_ID is 1 ,enter schedule 
 tickEvent's Core_ID is 1 ,enter schedule 
 tickEvent's Core_ID is 1 ,enter schedule 
 tickEvent's Core_ID is 1 ,enter schedule 
 tickEvent's Core_ID is 1 ,enter schedule 
 tickEvent's Core_ID is 1 ,enter schedule 
 tickEvent's Core_ID is 1 ,enter schedule 
 tickEvent's Core_ID is 1 ,enter schedule 
 tickEvent's Core_ID is 1 ,enter schedule 
 tickEvent's Core_ID is 1 ,enter schedule 
 tickEvent's Core_ID is 1 ,enter schedule 
 tickEvent's Core_ID is 1 ,enter schedule 
 tickEvent's Core_ID is 1 ,enter schedule 
 tickEvent's Core_ID is 1 ,enter schedule 
 tickEvent's Core_ID is 1 ,enter schedule 
 tickEvent's Core_ID is 1 ,enter schedule 
 tickEvent's Core_ID is 1 ,enter schedule 
 tickEvent's Core_ID is 1 ,enter schedule 
 tickEvent's Core_ID is 1 ,enter schedule 
 tickEvent's Core_ID is 1 ,enter schedule 
 tickEvent's Core_ID is 1 ,enter schedule 
 tickEvent's Core_ID is 1 ,enter schedule 
 tickEvent's Core_ID is 1 ,enter schedule 
 tickEvent's Core_ID is 1 ,enter schedule 
 tickEvent's Core_ID is 1 ,enter schedule 
 tickEvent's Core_ID is 1 ,enter schedule 
 tickEvent's Core_ID is 1 ,enter schedule 
 tickEvent's Core_ID is 1 ,enter schedule 
 tickEvent's Core_ID is 1 ,enter schedule 
 tickEvent's Core_ID is 1 ,enter schedule 
 tickEvent's Core_ID is 1 ,enter schedule 
 tickEvent's Core_ID is 1 ,enter schedule 
 tickEvent's Core_ID is 1 ,enter schedule 
 tickEvent's Core_ID is 1 ,enter schedule 
 tickEvent's Core_ID is 1 ,enter schedule 
 tickEvent's Core_ID is 1 ,enter schedule 
 tickEvent's Core_ID is 1 ,enter schedule 
 tickEvent's Core_ID is 1 ,enter schedule 
 tickEvent's Core_ID is 1 ,enter schedule 
 tickEvent's Core_ID is 1 ,enter schedule 
 Entering Event_implement reschedule !now the queue is 0 
cur queue is 0 
this == curqueue !
Entering Event_implement reschedule !now the queue is 0 
cur queue is 0 
this == curqueue !
tickEvent's Core_ID is 1 ,enter schedule 
 tickEvent's Core_ID is 1 ,enter schedule 
 tickEvent's Core_ID is 1 ,enter schedule 
 tickEvent's Core_ID is 1 ,enter schedule 
 tickEvent's Core_ID is 1 ,enter schedule 
 tickEvent's Core_ID is 1 ,enter schedule 
 tickEvent's Core_ID is 1 ,enter schedule 
 tickEvent's Core_ID is 1 ,enter schedule 
 tickEvent's Core_ID is 1 ,enter schedule 
 tickEvent's Core_ID is 1 ,enter schedule 
 tickEvent's Core_ID is 1 ,enter schedule 
 tickEvent's Core_ID is 1 ,enter schedule 
 tickEvent's Core_ID is 1 ,enter schedule 
 tickEvent's Core_ID is 1 ,enter schedule 
 tickEvent's Core_ID is 1 ,enter schedule 
 tickEvent's Core_ID is 1 ,enter schedule 
 tickEvent's Core_ID is 1 ,enter schedule 
 tickEvent's Core_ID is 1 ,enter schedule 
 tickEvent's Core_ID is 1 ,enter schedule 
 tickEvent's Core_ID is 1 ,enter schedule 
 tickEvent's Core_ID is 1 ,enter schedule 
 tickEvent's Core_ID is 1 ,enter schedule 
 tickEvent's Core_ID is 1 ,enter schedule 
 tickEvent's Core_ID is 1 ,enter schedule 
 tickEvent's Core_ID is 1 ,enter schedule 
 tickEvent's Core_ID is 1 ,enter schedule 
 tickEvent's Core_ID is 1 ,enter schedule 
 tickEvent's Core_ID is 1 ,enter schedule 
 tickEvent's Core_ID is 1 ,enter schedule 
 Entering Event_implement reschedule !now the queue is 0 
cur queue is 0 
this == curqueue !
tickEvent's Core_ID is 1 ,enter schedule 
 tickEvent's Core_ID is 1 ,enter schedule 
 tickEvent's Core_ID is 1 ,enter schedule 
 tickEvent's Core_ID is 1 ,enter schedule 
 tickEvent's Core_ID is 1 ,enter schedule 
 tickEvent's Core_ID is 1 ,enter schedule 
 tickEvent's Core_ID is 1 ,enter schedule 
 tickEvent's Core_ID is 1 ,enter schedule 
 tickEvent's Core_ID is 1 ,enter schedule 
 tickEvent's Core_ID is 1 ,enter schedule 
 tickEvent's Core_ID is 1 ,enter schedule 
 tickEvent's Core_ID is 1 ,enter schedule 
 tickEvent's Core_ID is 1 ,enter schedule 
 tickEvent's Core_ID is 1 ,enter schedule 
 tickEvent's Core_ID is 1 ,enter schedule 
 tickEvent's Core_ID is 1 ,enter schedule 
 tickEvent's Core_ID is 1 ,enter schedule 
 tickEvent's Core_ID is 1 ,enter schedule 
 tickEvent's Core_ID is 1 ,enter schedule 
 tickEvent's Core_ID is 1 ,enter schedule 
 tickEvent's Core_ID is 1 ,enter schedule 
 tickEvent's Core_ID is 1 ,enter schedule 
 tickEvent's Core_ID is 1 ,enter schedule 
 tickEvent's Core_ID is 1 ,enter schedule 
 tickEvent's Core_ID is 1 ,enter schedule 
 tickEvent's Core_ID is 1 ,enter schedule 
 tickEvent's Core_ID is 1 ,enter schedule 
 tickEvent's Core_ID is 1 ,enter schedule 
 tickEvent's Core_ID is 1 ,enter schedule 
 tickEvent's Core_ID is 1 ,enter schedule 
 tickEvent's Core_ID is 1 ,enter schedule 
 tickEvent's Core_ID is 1 ,enter schedule 
 Entering Event_implement reschedule !now the queue is 0 
cur queue is 0 
this == curqueue !
tickEvent's Core_ID is 1 ,enter schedule 
 tickEvent's Core_ID is 1 ,enter schedule 
 tickEvent's Core_ID is 1 ,enter schedule 
 tickEvent's Core_ID is 1 ,enter schedule 
 tickEvent's Core_ID is 1 ,enter schedule 
 tickEvent's Core_ID is 1 ,enter schedule 
 tickEvent's Core_ID is 1 ,enter schedule 
 tickEvent's Core_ID is 1 ,enter schedule 
 tickEvent's Core_ID is 1 ,enter schedule 
 tickEvent's Core_ID is 1 ,enter schedule 
 tickEvent's Core_ID is 1 ,enter schedule 
 tickEvent's Core_ID is 1 ,enter schedule 
 tickEvent's Core_ID is 1 ,enter schedule 
 tickEvent's Core_ID is 1 ,enter schedule 
 tickEvent's Core_ID is 1 ,enter schedule 
 tickEvent's Core_ID is 1 ,enter schedule 
 tickEvent's Core_ID is 1 ,enter schedule 
 tickEvent's Core_ID is 1 ,enter schedule 
 tickEvent's Core_ID is 1 ,enter schedule 
 tickEvent's Core_ID is 1 ,enter schedule 
 tickEvent's Core_ID is 1 ,enter schedule 
 tickEvent's Core_ID is 1 ,enter schedule 
 tickEvent's Core_ID is 1 ,enter schedule 
 tickEvent's Core_ID is 1 ,enter schedule 
 tickEvent's Core_ID is 1 ,enter schedule 
 tickEvent's Core_ID is 1 ,enter schedule 
 tickEvent's Core_ID is 1 ,enter schedule 
 tickEvent's Core_ID is 1 ,enter schedule 
 tickEvent's Core_ID is 1 ,enter schedule 
 tickEvent's Core_ID is 1 ,enter schedule 
 tickEvent's Core_ID is 1 ,enter schedule 
 tickEvent's Core_ID is 1 ,enter schedule 
 tickEvent's Core_ID is 1 ,enter schedule 
 tickEvent's Core_ID is 1 ,enter schedule 
 tickEvent's Core_ID is 1 ,enter schedule 
 tickEvent's Core_ID is 1 ,enter schedule 
 tickEvent's Core_ID is 1 ,enter schedule 
 tickEvent's Core_ID is 1 ,enter schedule 
 tickEvent's Core_ID is 1 ,enter schedule 
 tickEvent's Core_ID is 1 ,enter schedule 
 tickEvent's Core_ID is 1 ,enter schedule 
 tickEvent's Core_ID is 1 ,enter schedule 
 tickEvent's Core_ID is 1 ,enter schedule 
 tickEvent's Core_ID is 1 ,enter schedule 
 tickEvent's Core_ID is 1 ,enter schedule 
 tickEvent's Core_ID is 1 ,enter schedule 
 tickEvent's Core_ID is 1 ,enter schedule 
 tickEvent's Core_ID is 1 ,enter schedule 
 tickEvent's Core_ID is 1 ,enter schedule 
 tickEvent's Core_ID is 1 ,enter schedule 
 tickEvent's Core_ID is 1 ,enter schedule 
 tickEvent's Core_ID is 1 ,enter schedule 
 tickEvent's Core_ID is 1 ,enter schedule 
 tickEvent's Core_ID is 1 ,enter schedule 
 tickEvent's Core_ID is 1 ,enter schedule 
 tickEvent's Core_ID is 1 ,enter schedule 
 tickEvent's Core_ID is 1 ,enter schedule 
 tickEvent's Core_ID is 1 ,enter schedule 
 tickEvent's Core_ID is 1 ,enter schedule 
 tickEvent's Core_ID is 1 ,enter schedule 
 tickEvent's Core_ID is 1 ,enter schedule 
 tickEvent's Core_ID is 1 ,enter schedule 
 tickEvent's Core_ID is 1 ,enter schedule 
 tickEvent's Core_ID is 1 ,enter schedule 
 tickEvent's Core_ID is 1 ,enter schedule 
 tickEvent's Core_ID is 1 ,enter schedule 
 tickEvent's Core_ID is 1 ,enter schedule 
 tickEvent's Core_ID is 1 ,enter schedule 
 tickEvent's Core_ID is 1 ,enter schedule 
 tickEvent's Core_ID is 1 ,enter schedule 
 tickEvent's Core_ID is 1 ,enter schedule 
 tickEvent's Core_ID is 1 ,enter schedule 
 tickEvent's Core_ID is 1 ,enter schedule 
 tickEvent's Core_ID is 1 ,enter schedule 
 tickEvent's Core_ID is 1 ,enter schedule 
 tickEvent's Core_ID is 1 ,enter schedule 
 tickEvent's Core_ID is 1 ,enter schedule 
 tickEvent's Core_ID is 1 ,enter schedule 
 tickEvent's Core_ID is 1 ,enter schedule 
 tickEvent's Core_ID is 1 ,enter schedule 
 tickEvent's Core_ID is 1 ,enter schedule 
 tickEvent's Core_ID is 1 ,enter schedule 
 tickEvent's Core_ID is 1 ,enter schedule 
 tickEvent's Core_ID is 1 ,enter schedule 
 tickEvent's Core_ID is 1 ,enter schedule 
 tickEvent's Core_ID is 1 ,enter schedule 
 tickEvent's Core_ID is 1 ,enter schedule 
 tickEvent's Core_ID is 1 ,enter schedule 
 tickEvent's Core_ID is 1 ,enter schedule 
 tickEvent's Core_ID is 1 ,enter schedule 
 tickEvent's Core_ID is 1 ,enter schedule 
 tickEvent's Core_ID is 1 ,enter schedule 
 tickEvent's Core_ID is 1 ,enter schedule 
 tickEvent's Core_ID is 1 ,enter schedule 
 tickEvent's Core_ID is 1 ,enter schedule 
 tickEvent's Core_ID is 1 ,enter schedule 
 tickEvent's Core_ID is 1 ,enter schedule 
 tickEvent's Core_ID is 1 ,enter schedule 
 tickEvent's Core_ID is 1 ,enter schedule 
 tickEvent's Core_ID is 1 ,enter schedule 
 tickEvent's Core_ID is 1 ,enter schedule 
 tickEvent's Core_ID is 1 ,enter schedule 
 tickEvent's Core_ID is 1 ,enter schedule 
 tickEvent's Core_ID is 1 ,enter schedule 
 tickEvent's Core_ID is 1 ,enter schedule 
 tickEvent's Core_ID is 1 ,enter schedule 
 tickEvent's Core_ID is 1 ,enter schedule 
 tickEvent's Core_ID is 1 ,enter schedule 
 tickEvent's Core_ID is 1 ,enter schedule 
 tickEvent's Core_ID is 1 ,enter schedule 
 tickEvent's Core_ID is 1 ,enter schedule 
 tickEvent's Core_ID is 1 ,enter schedule 
 tickEvent's Core_ID is 1 ,enter schedule 
 tickEvent's Core_ID is 1 ,enter schedule 
 tickEvent's Core_ID is 1 ,enter schedule 
 tickEvent's Core_ID is 1 ,enter schedule 
 tickEvent's Core_ID is 1 ,enter schedule 
 tickEvent's Core_ID is 1 ,enter schedule 
 tickEvent's Core_ID is 1 ,enter schedule 
 tickEvent's Core_ID is 1 ,enter schedule 
 tickEvent's Core_ID is 1 ,enter schedule 
 tickEvent's Core_ID is 1 ,enter schedule 
 tickEvent's Core_ID is 1 ,enter schedule 
 tickEvent's Core_ID is 1 ,enter schedule 
 tickEvent's Core_ID is 1 ,enter schedule 
 tickEvent's Core_ID is 1 ,enter schedule 
 tickEvent's Core_ID is 1 ,enter schedule 
 tickEvent's Core_ID is 1 ,enter schedule 
 tickEvent's Core_ID is 1 ,enter schedule 
 tickEvent's Core_ID is 1 ,enter schedule 
 tickEvent's Core_ID is 1 ,enter schedule 
 tickEvent's Core_ID is 1 ,enter schedule 
 tickEvent's Core_ID is 1 ,enter schedule 
 tickEvent's Core_ID is 1 ,enter schedule 
 tickEvent's Core_ID is 1 ,enter schedule 
 tickEvent's Core_ID is 1 ,enter schedule 
 tickEvent's Core_ID is 1 ,enter schedule 
 tickEvent's Core_ID is 1 ,enter schedule 
 tickEvent's Core_ID is 1 ,enter schedule 
 tickEvent's Core_ID is 1 ,enter schedule 
 tickEvent's Core_ID is 1 ,enter schedule 
 tickEvent's Core_ID is 1 ,enter schedule 
 tickEvent's Core_ID is 1 ,enter schedule 
 tickEvent's Core_ID is 1 ,enter schedule 
 tickEvent's Core_ID is 1 ,enter schedule 
 tickEvent's Core_ID is 1 ,enter schedule 
 tickEvent's Core_ID is 1 ,enter schedule 
 tickEvent's Core_ID is 1 ,enter schedule 
 tickEvent's Core_ID is 1 ,enter schedule 
 tickEvent's Core_ID is 1 ,enter schedule 
 tickEvent's Core_ID is 1 ,enter schedule 
 tickEvent's Core_ID is 1 ,enter schedule 
 tickEvent's Core_ID is 1 ,enter schedule 
 tickEvent's Core_ID is 1 ,enter schedule 
 tickEvent's Core_ID is 1 ,enter schedule 
 tickEvent's Core_ID is 1 ,enter schedule 
 tickEvent's Core_ID is 1 ,enter schedule 
 tickEvent's Core_ID is 1 ,enter schedule 
 tickEvent's Core_ID is 1 ,enter schedule 
 tickEvent's Core_ID is 1 ,enter schedule 
 tickEvent's Core_ID is 1 ,enter schedule 
 tickEvent's Core_ID is 1 ,enter schedule 
 tickEvent's Core_ID is 1 ,enter schedule 
 tickEvent's Core_ID is 1 ,enter schedule 
 tickEvent's Core_ID is 1 ,enter schedule 
 tickEvent's Core_ID is 1 ,enter schedule 
 tickEvent's Core_ID is 1 ,enter schedule 
 tickEvent's Core_ID is 1 ,enter schedule 
 tickEvent's Core_ID is 1 ,enter schedule 
 tickEvent's Core_ID is 1 ,enter schedule 
 tickEvent's Core_ID is 1 ,enter schedule 
 tickEvent's Core_ID is 1 ,enter schedule 
 tickEvent's Core_ID is 1 ,enter schedule 
 tickEvent's Core_ID is 1 ,enter schedule 
 tickEvent's Core_ID is 1 ,enter schedule 
 tickEvent's Core_ID is 1 ,enter schedule 
 tickEvent's Core_ID is 1 ,enter schedule 
 tickEvent's Core_ID is 1 ,enter schedule 
 tickEvent's Core_ID is 1 ,enter schedule 
 tickEvent's Core_ID is 1 ,enter schedule 
 tickEvent's Core_ID is 1 ,enter schedule 
 tickEvent's Core_ID is 1 ,enter schedule 
 tickEvent's Core_ID is 1 ,enter schedule 
 tickEvent's Core_ID is 1 ,enter schedule 
 tickEvent's Core_ID is 1 ,enter schedule 
 tickEvent's Core_ID is 1 ,enter schedule 
 tickEvent's Core_ID is 1 ,enter schedule 
 tickEvent's Core_ID is 1 ,enter schedule 
 tickEvent's Core_ID is 1 ,enter schedule 
 tickEvent's Core_ID is 1 ,enter schedule 
 tickEvent's Core_ID is 1 ,enter schedule 
 tickEvent's Core_ID is 1 ,enter schedule 
 tickEvent's Core_ID is 1 ,enter schedule 
 tickEvent's Core_ID is 1 ,enter schedule 
 tickEvent's Core_ID is 1 ,enter schedule 
 tickEvent's Core_ID is 1 ,enter schedule 
 tickEvent's Core_ID is 1 ,enter schedule 
 tickEvent's Core_ID is 1 ,enter schedule 
 tickEvent's Core_ID is 1 ,enter schedule 
 tickEvent's Core_ID is 1 ,enter schedule 
 tickEvent's Core_ID is 1 ,enter schedule 
 tickEvent's Core_ID is 1 ,enter schedule 
 tickEvent's Core_ID is 1 ,enter schedule 
 tickEvent's Core_ID is 1 ,enter schedule 
 tickEvent's Core_ID is 1 ,enter schedule 
 tickEvent's Core_ID is 1 ,enter schedule 
 tickEvent's Core_ID is 1 ,enter schedule 
 tickEvent's Core_ID is 1 ,enter schedule 
 tickEvent's Core_ID is 1 ,enter schedule 
 tickEvent's Core_ID is 1 ,enter schedule 
 tickEvent's Core_ID is 1 ,enter schedule 
 tickEvent's Core_ID is 1 ,enter schedule 
 tickEvent's Core_ID is 1 ,enter schedule 
 tickEvent's Core_ID is 1 ,enter schedule 
 tickEvent's Core_ID is 1 ,enter schedule 
 tickEvent's Core_ID is 1 ,enter schedule 
 tickEvent's Core_ID is 1 ,enter schedule 
 tickEvent's Core_ID is 1 ,enter schedule 
 tickEvent's Core_ID is 1 ,enter schedule 
 tickEvent's Core_ID is 1 ,enter schedule 
 tickEvent's Core_ID is 1 ,enter schedule 
 tickEvent's Core_ID is 1 ,enter schedule 
 tickEvent's Core_ID is 1 ,enter schedule 
 tickEvent's Core_ID is 1 ,enter schedule 
 tickEvent's Core_ID is 1 ,enter schedule 
 tickEvent's Core_ID is 1 ,enter schedule 
 tickEvent's Core_ID is 1 ,enter schedule 
 tickEvent's Core_ID is 1 ,enter schedule 
 tickEvent's Core_ID is 1 ,enter schedule 
 tickEvent's Core_ID is 1 ,enter schedule 
 tickEvent's Core_ID is 1 ,enter schedule 
 tickEvent's Core_ID is 1 ,enter schedule 
 tickEvent's Core_ID is 1 ,enter schedule 
 tickEvent's Core_ID is 1 ,enter schedule 
 tickEvent's Core_ID is 1 ,enter schedule 
 tickEvent's Core_ID is 1 ,enter schedule 
 tickEvent's Core_ID is 1 ,enter schedule 
 tickEvent's Core_ID is 1 ,enter schedule 
 tickEvent's Core_ID is 1 ,enter schedule 
 tickEvent's Core_ID is 1 ,enter schedule 
 tickEvent's Core_ID is 1 ,enter schedule 
 tickEvent's Core_ID is 1 ,enter schedule 
 tickEvent's Core_ID is 1 ,enter schedule 
 tickEvent's Core_ID is 1 ,enter schedule 
 tickEvent's Core_ID is 1 ,enter schedule 
 tickEvent's Core_ID is 1 ,enter schedule 
 tickEvent's Core_ID is 1 ,enter schedule 
 tickEvent's Core_ID is 1 ,enter schedule 
 tickEvent's Core_ID is 1 ,enter schedule 
 tickEvent's Core_ID is 1 ,enter schedule 
 tickEvent's Core_ID is 1 ,enter schedule 
 tickEvent's Core_ID is 1 ,enter schedule 
 tickEvent's Core_ID is 1 ,enter schedule 
 tickEvent's Core_ID is 1 ,enter schedule 
 tickEvent's Core_ID is 1 ,enter schedule 
 tickEvent's Core_ID is 1 ,enter schedule 
 tickEvent's Core_ID is 1 ,enter schedule 
 tickEvent's Core_ID is 1 ,enter schedule 
 tickEvent's Core_ID is 1 ,enter schedule 
 tickEvent's Core_ID is 1 ,enter schedule 
 tickEvent's Core_ID is 1 ,enter schedule 
 tickEvent's Core_ID is 1 ,enter schedule 
 tickEvent's Core_ID is 1 ,enter schedule 
 tickEvent's Core_ID is 1 ,enter schedule 
 tickEvent's Core_ID is 1 ,enter schedule 
 tickEvent's Core_ID is 1 ,enter schedule 
 tickEvent's Core_ID is 1 ,enter schedule 
 tickEvent's Core_ID is 1 ,enter schedule 
 tickEvent's Core_ID is 1 ,enter schedule 
 tickEvent's Core_ID is 1 ,enter schedule 
 tickEvent's Core_ID is 1 ,enter schedule 
 tickEvent's Core_ID is 1 ,enter schedule 
 tickEvent's Core_ID is 1 ,enter schedule 
 tickEvent's Core_ID is 1 ,enter schedule 
 tickEvent's Core_ID is 1 ,enter schedule 
 tickEvent's Core_ID is 1 ,enter schedule 
 tickEvent's Core_ID is 1 ,enter schedule 
 tickEvent's Core_ID is 1 ,enter schedule 
 tickEvent's Core_ID is 1 ,enter schedule 
 tickEvent's Core_ID is 1 ,enter schedule 
 tickEvent's Core_ID is 1 ,enter schedule 
 tickEvent's Core_ID is 1 ,enter schedule 
 tickEvent's Core_ID is 1 ,enter schedule 
 tickEvent's Core_ID is 1 ,enter schedule 
 tickEvent's Core_ID is 1 ,enter schedule 
 tickEvent's Core_ID is 1 ,enter schedule 
 tickEvent's Core_ID is 1 ,enter schedule 
 tickEvent's Core_ID is 1 ,enter schedule 
 tickEvent's Core_ID is 1 ,enter schedule 
 tickEvent's Core_ID is 1 ,enter schedule 
 tickEvent's Core_ID is 1 ,enter schedule 
 tickEvent's Core_ID is 1 ,enter schedule 
 tickEvent's Core_ID is 1 ,enter schedule 
 tickEvent's Core_ID is 1 ,enter schedule 
 tickEvent's Core_ID is 1 ,enter schedule 
 tickEvent's Core_ID is 1 ,enter schedule 
 tickEvent's Core_ID is 1 ,enter schedule 
 tickEvent's Core_ID is 1 ,enter schedule 
 tickEvent's Core_ID is 1 ,enter schedule 
 tickEvent's Core_ID is 1 ,enter schedule 
 tickEvent's Core_ID is 1 ,enter schedule 
 tickEvent's Core_ID is 1 ,enter schedule 
 tickEvent's Core_ID is 1 ,enter schedule 
 tickEvent's Core_ID is 1 ,enter schedule 
 tickEvent's Core_ID is 1 ,enter schedule 
 tickEvent's Core_ID is 1 ,enter schedule 
 tickEvent's Core_ID is 1 ,enter schedule 
 tickEvent's Core_ID is 1 ,enter schedule 
 tickEvent's Core_ID is 1 ,enter schedule 
 tickEvent's Core_ID is 1 ,enter schedule 
 tickEvent's Core_ID is 1 ,enter schedule 
 tickEvent's Core_ID is 1 ,enter schedule 
 tickEvent's Core_ID is 1 ,enter schedule 
 tickEvent's Core_ID is 1 ,enter schedule 
 tickEvent's Core_ID is 1 ,enter schedule 
 tickEvent's Core_ID is 1 ,enter schedule 
 tickEvent's Core_ID is 1 ,enter schedule 
 tickEvent's Core_ID is 1 ,enter schedule 
 tickEvent's Core_ID is 1 ,enter schedule 
 tickEvent's Core_ID is 1 ,enter schedule 
 tickEvent's Core_ID is 1 ,enter schedule 
 tickEvent's Core_ID is 1 ,enter schedule 
 tickEvent's Core_ID is 1 ,enter schedule 
 tickEvent's Core_ID is 1 ,enter schedule 
 tickEvent's Core_ID is 1 ,enter schedule 
 tickEvent's Core_ID is 1 ,enter schedule 
 tickEvent's Core_ID is 1 ,enter schedule 
 tickEvent's Core_ID is 1 ,enter schedule 
 tickEvent's Core_ID is 1 ,enter schedule 
 tickEvent's Core_ID is 1 ,enter schedule 
 tickEvent's Core_ID is 1 ,enter schedule 
 tickEvent's Core_ID is 1 ,enter schedule 
 tickEvent's Core_ID is 1 ,enter schedule 
 tickEvent's Core_ID is 1 ,enter schedule 
 tickEvent's Core_ID is 1 ,enter schedule 
 tickEvent's Core_ID is 1 ,enter schedule 
 tickEvent's Core_ID is 1 ,enter schedule 
 tickEvent's Core_ID is 1 ,enter schedule 
 tickEvent's Core_ID is 1 ,enter schedule 
 tickEvent's Core_ID is 1 ,enter schedule 
 tickEvent's Core_ID is 1 ,enter schedule 
 tickEvent's Core_ID is 1 ,enter schedule 
 tickEvent's Core_ID is 1 ,enter schedule 
 tickEvent's Core_ID is 1 ,enter schedule 
 tickEvent's Core_ID is 1 ,enter schedule 
 tickEvent's Core_ID is 1 ,enter schedule 
 tickEvent's Core_ID is 1 ,enter schedule 
 tickEvent's Core_ID is 1 ,enter schedule 
 tickEvent's Core_ID is 1 ,enter schedule 
 tickEvent's Core_ID is 1 ,enter schedule 
 tickEvent's Core_ID is 1 ,enter schedule 
 tickEvent's Core_ID is 1 ,enter schedule 
 tickEvent's Core_ID is 1 ,enter schedule 
 tickEvent's Core_ID is 1 ,enter schedule 
 tickEvent's Core_ID is 1 ,enter schedule 
 tickEvent's Core_ID is 1 ,enter schedule 
 tickEvent's Core_ID is 1 ,enter schedule 
 tickEvent's Core_ID is 1 ,enter schedule 
 tickEvent's Core_ID is 1 ,enter schedule 
 tickEvent's Core_ID is 1 ,enter schedule 
 tickEvent's Core_ID is 1 ,enter schedule 
 tickEvent's Core_ID is 1 ,enter schedule 
 tickEvent's Core_ID is 1 ,enter schedule 
 tickEvent's Core_ID is 1 ,enter schedule 
 tickEvent's Core_ID is 1 ,enter schedule 
 tickEvent's Core_ID is 1 ,enter schedule 
 tickEvent's Core_ID is 1 ,enter schedule 
 tickEvent's Core_ID is 1 ,enter schedule 
 tickEvent's Core_ID is 1 ,enter schedule 
 tickEvent's Core_ID is 1 ,enter schedule 
 tickEvent's Core_ID is 1 ,enter schedule 
 tickEvent's Core_ID is 1 ,enter schedule 
 tickEvent's Core_ID is 1 ,enter schedule 
 tickEvent's Core_ID is 1 ,enter schedule 
 tickEvent's Core_ID is 1 ,enter schedule 
 tickEvent's Core_ID is 1 ,enter schedule 
 tickEvent's Core_ID is 1 ,enter schedule 
 tickEvent's Core_ID is 1 ,enter schedule 
 tickEvent's Core_ID is 1 ,enter schedule 
 tickEvent's Core_ID is 1 ,enter schedule 
 tickEvent's Core_ID is 1 ,enter schedule 
 tickEvent's Core_ID is 1 ,enter schedule 
 tickEvent's Core_ID is 1 ,enter schedule 
 tickEvent's Core_ID is 1 ,enter schedule 
 tickEvent's Core_ID is 1 ,enter schedule 
 tickEvent's Core_ID is 1 ,enter schedule 
 tickEvent's Core_ID is 1 ,enter schedule 
 tickEvent's Core_ID is 1 ,enter schedule 
 tickEvent's Core_ID is 1 ,enter schedule 
 tickEvent's Core_ID is 1 ,enter schedule 
 tickEvent's Core_ID is 1 ,enter schedule 
 tickEvent's Core_ID is 1 ,enter schedule 
 tickEvent's Core_ID is 1 ,enter schedule 
 tickEvent's Core_ID is 1 ,enter schedule 
 tickEvent's Core_ID is 1 ,enter schedule 
 tickEvent's Core_ID is 1 ,enter schedule 
 tickEvent's Core_ID is 1 ,enter schedule 
 tickEvent's Core_ID is 1 ,enter schedule 
 tickEvent's Core_ID is 1 ,enter schedule 
 tickEvent's Core_ID is 1 ,enter schedule 
 tickEvent's Core_ID is 1 ,enter schedule 
 tickEvent's Core_ID is 1 ,enter schedule 
 tickEvent's Core_ID is 1 ,enter schedule 
 tickEvent's Core_ID is 1 ,enter schedule 
 tickEvent's Core_ID is 1 ,enter schedule 
 tickEvent's Core_ID is 1 ,enter schedule 
 tickEvent's Core_ID is 1 ,enter schedule 
 tickEvent's Core_ID is 1 ,enter schedule 
 tickEvent's Core_ID is 1 ,enter schedule 
 tickEvent's Core_ID is 1 ,enter schedule 
 tickEvent's Core_ID is 1 ,enter schedule 
 tickEvent's Core_ID is 1 ,enter schedule 
 tickEvent's Core_ID is 1 ,enter schedule 
 tickEvent's Core_ID is 1 ,enter schedule 
 tickEvent's Core_ID is 1 ,enter schedule 
 tickEvent's Core_ID is 1 ,enter schedule 
 tickEvent's Core_ID is 1 ,enter schedule 
 tickEvent's Core_ID is 1 ,enter schedule 
 tickEvent's Core_ID is 1 ,enter schedule 
 tickEvent's Core_ID is 1 ,enter schedule 
 tickEvent's Core_ID is 1 ,enter schedule 
 tickEvent's Core_ID is 1 ,enter schedule 
 tickEvent's Core_ID is 1 ,enter schedule 
 tickEvent's Core_ID is 1 ,enter schedule 
 tickEvent's Core_ID is 1 ,enter schedule 
 tickEvent's Core_ID is 1 ,enter schedule 
 tickEvent's Core_ID is 1 ,enter schedule 
 tickEvent's Core_ID is 1 ,enter schedule 
 tickEvent's Core_ID is 1 ,enter schedule 
 tickEvent's Core_ID is 1 ,enter schedule 
 tickEvent's Core_ID is 1 ,enter schedule 
 tickEvent's Core_ID is 1 ,enter schedule 
 tickEvent's Core_ID is 1 ,enter schedule 
 tickEvent's Core_ID is 1 ,enter schedule 
 tickEvent's Core_ID is 1 ,enter schedule 
 tickEvent's Core_ID is 1 ,enter schedule 
 tickEvent's Core_ID is 1 ,enter schedule 
 tickEvent's Core_ID is 1 ,enter schedule 
 tickEvent's Core_ID is 1 ,enter schedule 
 tickEvent's Core_ID is 1 ,enter schedule 
 tickEvent's Core_ID is 1 ,enter schedule 
 tickEvent's Core_ID is 1 ,enter schedule 
 tickEvent's Core_ID is 1 ,enter schedule 
 tickEvent's Core_ID is 1 ,enter schedule 
 tickEvent's Core_ID is 1 ,enter schedule 
 tickEvent's Core_ID is 1 ,enter schedule 
 tickEvent's Core_ID is 1 ,enter schedule 
 tickEvent's Core_ID is 1 ,enter schedule 
 tickEvent's Core_ID is 1 ,enter schedule 
 tickEvent's Core_ID is 1 ,enter schedule 
 tickEvent's Core_ID is 1 ,enter schedule 
 tickEvent's Core_ID is 1 ,enter schedule 
 tickEvent's Core_ID is 1 ,enter schedule 
 tickEvent's Core_ID is 1 ,enter schedule 
 tickEvent's Core_ID is 1 ,enter schedule 
 tickEvent's Core_ID is 1 ,enter schedule 
 tickEvent's Core_ID is 1 ,enter schedule 
 tickEvent's Core_ID is 1 ,enter schedule 
 tickEvent's Core_ID is 1 ,enter schedule 
 tickEvent's Core_ID is 1 ,enter schedule 
 tickEvent's Core_ID is 1 ,enter schedule 
 tickEvent's Core_ID is 1 ,enter schedule 
 tickEvent's Core_ID is 1 ,enter schedule 
 tickEvent's Core_ID is 1 ,enter schedule 
 tickEvent's Core_ID is 1 ,enter schedule 
 tickEvent's Core_ID is 1 ,enter schedule 
 tickEvent's Core_ID is 1 ,enter schedule 
 tickEvent's Core_ID is 1 ,enter schedule 
 tickEvent's Core_ID is 1 ,enter schedule 
 tickEvent's Core_ID is 1 ,enter schedule 
 tickEvent's Core_ID is 1 ,enter schedule 
 tickEvent's Core_ID is 1 ,enter schedule 
 tickEvent's Core_ID is 1 ,enter schedule 
 tickEvent's Core_ID is 1 ,enter schedule 
 tickEvent's Core_ID is 1 ,enter schedule 
 tickEvent's Core_ID is 1 ,enter schedule 
 tickEvent's Core_ID is 1 ,enter schedule 
 tickEvent's Core_ID is 1 ,enter schedule 
 tickEvent's Core_ID is 1 ,enter schedule 
 tickEvent's Core_ID is 1 ,enter schedule 
 tickEvent's Core_ID is 1 ,enter schedule 
 tickEvent's Core_ID is 1 ,enter schedule 
 tickEvent's Core_ID is 1 ,enter schedule 
 tickEvent's Core_ID is 1 ,enter schedule 
 tickEvent's Core_ID is 1 ,enter schedule 
 tickEvent's Core_ID is 1 ,enter schedule 
 tickEvent's Core_ID is 1 ,enter schedule 
 tickEvent's Core_ID is 1 ,enter schedule 
 tickEvent's Core_ID is 1 ,enter schedule 
 tickEvent's Core_ID is 1 ,enter schedule 
 tickEvent's Core_ID is 1 ,enter schedule 
 tickEvent's Core_ID is 1 ,enter schedule 
 tickEvent's Core_ID is 1 ,enter schedule 
 tickEvent's Core_ID is 1 ,enter schedule 
 tickEvent's Core_ID is 1 ,enter schedule 
 tickEvent's Core_ID is 1 ,enter schedule 
 tickEvent's Core_ID is 1 ,enter schedule 
 tickEvent's Core_ID is 1 ,enter schedule 
 tickEvent's Core_ID is 1 ,enter schedule 
 tickEvent's Core_ID is 1 ,enter schedule 
 tickEvent's Core_ID is 1 ,enter schedule 
 tickEvent's Core_ID is 1 ,enter schedule 
 tickEvent's Core_ID is 1 ,enter schedule 
 tickEvent's Core_ID is 1 ,enter schedule 
 tickEvent's Core_ID is 1 ,enter schedule 
 tickEvent's Core_ID is 1 ,enter schedule 
 tickEvent's Core_ID is 1 ,enter schedule 
 tickEvent's Core_ID is 1 ,enter schedule 
 tickEvent's Core_ID is 1 ,enter schedule 
 tickEvent's Core_ID is 1 ,enter schedule 
 tickEvent's Core_ID is 1 ,enter schedule 
 tickEvent's Core_ID is 1 ,enter schedule 
 tickEvent's Core_ID is 1 ,enter schedule 
 tickEvent's Core_ID is 1 ,enter schedule 
 tickEvent's Core_ID is 1 ,enter schedule 
 tickEvent's Core_ID is 1 ,enter schedule 
 tickEvent's Core_ID is 1 ,enter schedule 
 tickEvent's Core_ID is 1 ,enter schedule 
 tickEvent's Core_ID is 1 ,enter schedule 
 tickEvent's Core_ID is 1 ,enter schedule 
 tickEvent's Core_ID is 1 ,enter schedule 
 tickEvent's Core_ID is 1 ,enter schedule 
 tickEvent's Core_ID is 1 ,enter schedule 
 tickEvent's Core_ID is 1 ,enter schedule 
 tickEvent's Core_ID is 1 ,enter schedule 
 tickEvent's Core_ID is 1 ,enter schedule 
 tickEvent's Core_ID is 1 ,enter schedule 
 tickEvent's Core_ID is 1 ,enter schedule 
 tickEvent's Core_ID is 1 ,enter schedule 
 tickEvent's Core_ID is 1 ,enter schedule 
 tickEvent's Core_ID is 1 ,enter schedule 
 tickEvent's Core_ID is 1 ,enter schedule 
 tickEvent's Core_ID is 1 ,enter schedule 
 tickEvent's Core_ID is 1 ,enter schedule 
 tickEvent's Core_ID is 1 ,enter schedule 
 tickEvent's Core_ID is 1 ,enter schedule 
 tickEvent's Core_ID is 1 ,enter schedule 
 tickEvent's Core_ID is 1 ,enter schedule 
 tickEvent's Core_ID is 1 ,enter schedule 
 tickEvent's Core_ID is 1 ,enter schedule 
 tickEvent's Core_ID is 1 ,enter schedule 
 tickEvent's Core_ID is 1 ,enter schedule 
 tickEvent's Core_ID is 1 ,enter schedule 
 tickEvent's Core_ID is 1 ,enter schedule 
 tickEvent's Core_ID is 1 ,enter schedule 
 tickEvent's Core_ID is 1 ,enter schedule 
 tickEvent's Core_ID is 1 ,enter schedule 
 tickEvent's Core_ID is 1 ,enter schedule 
 tickEvent's Core_ID is 1 ,enter schedule 
 tickEvent's Core_ID is 1 ,enter schedule 
 tickEvent's Core_ID is 1 ,enter schedule 
 tickEvent's Core_ID is 1 ,enter schedule 
 tickEvent's Core_ID is 1 ,enter schedule 
 tickEvent's Core_ID is 1 ,enter schedule 
 tickEvent's Core_ID is 1 ,enter schedule 
 tickEvent's Core_ID is 1 ,enter schedule 
 tickEvent's Core_ID is 1 ,enter schedule 
 tickEvent's Core_ID is 1 ,enter schedule 
 tickEvent's Core_ID is 1 ,enter schedule 
 tickEvent's Core_ID is 1 ,enter schedule 
 tickEvent's Core_ID is 1 ,enter schedule 
 tickEvent's Core_ID is 1 ,enter schedule 
 tickEvent's Core_ID is 1 ,enter schedule 
 tickEvent's Core_ID is 1 ,enter schedule 
 tickEvent's Core_ID is 1 ,enter schedule 
 tickEvent's Core_ID is 1 ,enter schedule 
 tickEvent's Core_ID is 1 ,enter schedule 
 tickEvent's Core_ID is 1 ,enter schedule 
 tickEvent's Core_ID is 1 ,enter schedule 
 tickEvent's Core_ID is 1 ,enter schedule 
 tickEvent's Core_ID is 1 ,enter schedule 
 tickEvent's Core_ID is 1 ,enter schedule 
 tickEvent's Core_ID is 1 ,enter schedule 
 tickEvent's Core_ID is 1 ,enter schedule 
 tickEvent's Core_ID is 1 ,enter schedule 
 tickEvent's Core_ID is 1 ,enter schedule 
 tickEvent's Core_ID is 1 ,enter schedule 
 tickEvent's Core_ID is 1 ,enter schedule 
 tickEvent's Core_ID is 1 ,enter schedule 
 tickEvent's Core_ID is 1 ,enter schedule 
 tickEvent's Core_ID is 1 ,enter schedule 
 tickEvent's Core_ID is 1 ,enter schedule 
 tickEvent's Core_ID is 1 ,enter schedule 
 tickEvent's Core_ID is 1 ,enter schedule 
 tickEvent's Core_ID is 1 ,enter schedule 
 tickEvent's Core_ID is 1 ,enter schedule 
 tickEvent's Core_ID is 1 ,enter schedule 
 tickEvent's Core_ID is 1 ,enter schedule 
 tickEvent's Core_ID is 1 ,enter schedule 
 tickEvent's Core_ID is 1 ,enter schedule 
 tickEvent's Core_ID is 1 ,enter schedule 
 tickEvent's Core_ID is 1 ,enter schedule 
 tickEvent's Core_ID is 1 ,enter schedule 
 tickEvent's Core_ID is 1 ,enter schedule 
 tickEvent's Core_ID is 1 ,enter schedule 
 tickEvent's Core_ID is 1 ,enter schedule 
 tickEvent's Core_ID is 1 ,enter schedule 
 tickEvent's Core_ID is 1 ,enter schedule 
 tickEvent's Core_ID is 1 ,enter schedule 
 tickEvent's Core_ID is 1 ,enter schedule 
 tickEvent's Core_ID is 1 ,enter schedule 
 tickEvent's Core_ID is 1 ,enter schedule 
 tickEvent's Core_ID is 1 ,enter schedule 
 tickEvent's Core_ID is 1 ,enter schedule 
 tickEvent's Core_ID is 1 ,enter schedule 
 tickEvent's Core_ID is 1 ,enter schedule 
 tickEvent's Core_ID is 1 ,enter schedule 
 tickEvent's Core_ID is 1 ,enter schedule 
 tickEvent's Core_ID is 1 ,enter schedule 
 tickEvent's Core_ID is 1 ,enter schedule 
 tickEvent's Core_ID is 1 ,enter schedule 
 tickEvent's Core_ID is 1 ,enter schedule 
 tickEvent's Core_ID is 1 ,enter schedule 
 tickEvent's Core_ID is 1 ,enter schedule 
 tickEvent's Core_ID is 1 ,enter schedule 
 tickEvent's Core_ID is 1 ,enter schedule 
 tickEvent's Core_ID is 1 ,enter schedule 
 tickEvent's Core_ID is 1 ,enter schedule 
 tickEvent's Core_ID is 1 ,enter schedule 
 tickEvent's Core_ID is 1 ,enter schedule 
 tickEvent's Core_ID is 1 ,enter schedule 
 tickEvent's Core_ID is 1 ,enter schedule 
 tickEvent's Core_ID is 1 ,enter schedule 
 tickEvent's Core_ID is 1 ,enter schedule 
 tickEvent's Core_ID is 1 ,enter schedule 
 tickEvent's Core_ID is 1 ,enter schedule 
 tickEvent's Core_ID is 1 ,enter schedule 
 tickEvent's Core_ID is 1 ,enter schedule 
 tickEvent's Core_ID is 1 ,enter schedule 
 tickEvent's Core_ID is 1 ,enter schedule 
 tickEvent's Core_ID is 1 ,enter schedule 
 tickEvent's Core_ID is 1 ,enter schedule 
 tickEvent's Core_ID is 1 ,enter schedule 
 tickEvent's Core_ID is 1 ,enter schedule 
 tickEvent's Core_ID is 1 ,enter schedule 
 tickEvent's Core_ID is 1 ,enter schedule 
 tickEvent's Core_ID is 1 ,enter schedule 
 tickEvent's Core_ID is 1 ,enter schedule 
 tickEvent's Core_ID is 1 ,enter schedule 
 tickEvent's Core_ID is 1 ,enter schedule 
 tickEvent's Core_ID is 1 ,enter schedule 
 tickEvent's Core_ID is 1 ,enter schedule 
 tickEvent's Core_ID is 1 ,enter schedule 
 tickEvent's Core_ID is 1 ,enter schedule 
 tickEvent's Core_ID is 1 ,enter schedule 
 tickEvent's Core_ID is 1 ,enter schedule 
 tickEvent's Core_ID is 1 ,enter schedule 
 tickEvent's Core_ID is 1 ,enter schedule 
 tickEvent's Core_ID is 1 ,enter schedule 
 tickEvent's Core_ID is 1 ,enter schedule 
 tickEvent's Core_ID is 1 ,enter schedule 
 tickEvent's Core_ID is 1 ,enter schedule 
 tickEvent's Core_ID is 1 ,enter schedule 
 tickEvent's Core_ID is 1 ,enter schedule 
 tickEvent's Core_ID is 1 ,enter schedule 
 tickEvent's Core_ID is 1 ,enter schedule 
 tickEvent's Core_ID is 1 ,enter schedule 
 tickEvent's Core_ID is 1 ,enter schedule 
 tickEvent's Core_ID is 1 ,enter schedule 
 tickEvent's Core_ID is 1 ,enter schedule 
 tickEvent's Core_ID is 1 ,enter schedule 
 tickEvent's Core_ID is 1 ,enter schedule 
 tickEvent's Core_ID is 1 ,enter schedule 
 tickEvent's Core_ID is 1 ,enter schedule 
 tickEvent's Core_ID is 1 ,enter schedule 
 tickEvent's Core_ID is 1 ,enter schedule 
 tickEvent's Core_ID is 1 ,enter schedule 
 tickEvent's Core_ID is 1 ,enter schedule 
 tickEvent's Core_ID is 1 ,enter schedule 
 tickEvent's Core_ID is 1 ,enter schedule 
 tickEvent's Core_ID is 1 ,enter schedule 
 tickEvent's Core_ID is 1 ,enter schedule 
 tickEvent's Core_ID is 1 ,enter schedule 
 tickEvent's Core_ID is 1 ,enter schedule 
 tickEvent's Core_ID is 1 ,enter schedule 
 tickEvent's Core_ID is 1 ,enter schedule 
 tickEvent's Core_ID is 1 ,enter schedule 
 tickEvent's Core_ID is 1 ,enter schedule 
 tickEvent's Core_ID is 1 ,enter schedule 
 tickEvent's Core_ID is 1 ,enter schedule 
 tickEvent's Core_ID is 1 ,enter schedule 
 tickEvent's Core_ID is 1 ,enter schedule 
 tickEvent's Core_ID is 1 ,enter schedule 
 tickEvent's Core_ID is 1 ,enter schedule 
 tickEvent's Core_ID is 1 ,enter schedule 
 tickEvent's Core_ID is 1 ,enter schedule 
 tickEvent's Core_ID is 1 ,enter schedule 
 tickEvent's Core_ID is 1 ,enter schedule 
 tickEvent's Core_ID is 1 ,enter schedule 
 tickEvent's Core_ID is 1 ,enter schedule 
 tickEvent's Core_ID is 1 ,enter schedule 
 tickEvent's Core_ID is 1 ,enter schedule 
 tickEvent's Core_ID is 1 ,enter schedule 
 tickEvent's Core_ID is 1 ,enter schedule 
 tickEvent's Core_ID is 1 ,enter schedule 
 tickEvent's Core_ID is 1 ,enter schedule 
 tickEvent's Core_ID is 1 ,enter schedule 
 tickEvent's Core_ID is 1 ,enter schedule 
 tickEvent's Core_ID is 1 ,enter schedule 
 tickEvent's Core_ID is 1 ,enter schedule 
 tickEvent's Core_ID is 1 ,enter schedule 
 tickEvent's Core_ID is 1 ,enter schedule 
 tickEvent's Core_ID is 1 ,enter schedule 
 tickEvent's Core_ID is 1 ,enter schedule 
 tickEvent's Core_ID is 1 ,enter schedule 
 tickEvent's Core_ID is 1 ,enter schedule 
 tickEvent's Core_ID is 1 ,enter schedule 
 tickEvent's Core_ID is 1 ,enter schedule 
 tickEvent's Core_ID is 1 ,enter schedule 
 tickEvent's Core_ID is 1 ,enter schedule 
 tickEvent's Core_ID is 1 ,enter schedule 
 tickEvent's Core_ID is 1 ,enter schedule 
 tickEvent's Core_ID is 1 ,enter schedule 
 tickEvent's Core_ID is 1 ,enter schedule 
 tickEvent's Core_ID is 1 ,enter schedule 
 tickEvent's Core_ID is 1 ,enter schedule 
 tickEvent's Core_ID is 1 ,enter schedule 
 tickEvent's Core_ID is 1 ,enter schedule 
 tickEvent's Core_ID is 1 ,enter schedule 
 tickEvent's Core_ID is 1 ,enter schedule 
 tickEvent's Core_ID is 1 ,enter schedule 
 tickEvent's Core_ID is 1 ,enter schedule 
 tickEvent's Core_ID is 1 ,enter schedule 
 tickEvent's Core_ID is 1 ,enter schedule 
 tickEvent's Core_ID is 1 ,enter schedule 
 tickEvent's Core_ID is 1 ,enter schedule 
 tickEvent's Core_ID is 1 ,enter schedule 
 tickEvent's Core_ID is 1 ,enter schedule 
 tickEvent's Core_ID is 1 ,enter schedule 
 tickEvent's Core_ID is 1 ,enter schedule 
 tickEvent's Core_ID is 1 ,enter schedule 
 tickEvent's Core_ID is 1 ,enter schedule 
 tickEvent's Core_ID is 1 ,enter schedule 
 tickEvent's Core_ID is 1 ,enter schedule 
 tickEvent's Core_ID is 1 ,enter schedule 
 tickEvent's Core_ID is 1 ,enter schedule 
 tickEvent's Core_ID is 1 ,enter schedule 
 tickEvent's Core_ID is 1 ,enter schedule 
 tickEvent's Core_ID is 1 ,enter schedule 
 tickEvent's Core_ID is 1 ,enter schedule 
 tickEvent's Core_ID is 1 ,enter schedule 
 tickEvent's Core_ID is 1 ,enter schedule 
 tickEvent's Core_ID is 1 ,enter schedule 
 tickEvent's Core_ID is 1 ,enter schedule 
 tickEvent's Core_ID is 1 ,enter schedule 
 tickEvent's Core_ID is 1 ,enter schedule 
 tickEvent's Core_ID is 1 ,enter schedule 
 tickEvent's Core_ID is 1 ,enter schedule 
 tickEvent's Core_ID is 1 ,enter schedule 
[...]
 tickEvent's Core_ID is 1 ,enter schedule 
 tickEvent's Core_ID is 1 ,enter schedule 
 tickEvent's Core_ID is 1 ,enter schedule 
 tickEvent's Core_ID is 1 ,enter schedule 
 tickEvent's Core_ID is 1 ,enter schedule 
 tickEvent's Core_ID is 1 ,enter schedule 
 tickEvent's Core_ID is 1 ,enter schedule 
 tickEvent's Core_ID is 1 ,enter schedule 
 tickEvent's Core_ID is 1 ,enter schedule 
 tickEvent's Core_ID is 1 ,enter schedule 
 tickEvent's Core_ID is 1 ,enter schedule 
 tickEvent's Core_ID is 1 ,enter schedule 
 tickEvent's Core_ID is 1 ,enter schedule 
 tickEvent's Core_ID is 1 ,enter schedule 
 tickEvent's Core_ID is 1 ,enter schedule 
 tickEvent's Core_ID is 1 ,enter schedule 
 tickEvent's Core_ID is 1 ,enter schedule 
 tickEvent's Core_ID is 1 ,enter schedule 
 tickEvent's Core_ID is 1 ,enter schedule 
 tickEvent's Core_ID is 1 ,enter schedule 
 tickEvent's Core_ID is 1 ,enter schedule 
 tickEvent's Core_ID is 1 ,enter schedule 
 tickEvent's Core_ID is 1 ,enter schedule 
 tickEvent's Core_ID is 1 ,enter schedule 
 tickEvent's Core_ID is 1 ,enter schedule 
 tickEvent's Core_ID is 1 ,enter schedule 
 tickEvent's Core_ID is 1 ,enter schedule 
 tickEvent's Core_ID is 1 ,enter schedule 
 tickEvent's Core_ID is 1 ,enter schedule 
 tickEvent's Core_ID is 1 ,enter schedule 
 tickEvent's Core_ID is 1 ,enter schedule 
 tickEvent's Core_ID is 1 ,enter schedule 
 tickEvent's Core_ID is 1 ,enter schedule 
 tickEvent's Core_ID is 1 ,enter schedule 
 tickEvent's Core_ID is 1 ,enter schedule 
 tickEvent's Core_ID is 1 ,enter schedule 
 tickEvent's Core_ID is 1 ,enter schedule 
 tickEvent's Core_ID is 1 ,enter schedule 
 tickEvent's Core_ID is 1 ,enter schedule 
 tickEvent's Core_ID is 1 ,enter schedule 
 tickEvent's Core_ID is 1 ,enter schedule 
 tickEvent's Core_ID is 1 ,enter schedule 
 tickEvent's Core_ID is 1 ,enter schedule 
 tickEvent's Core_ID is 1 ,enter schedule 
 tickEvent's Core_ID is 1 ,enter schedule 
 tickEvent's Core_ID is 1 ,enter schedule 
 tickEvent's Core_ID is 1 ,enter schedule 
 tickEvent's Core_ID is 1 ,enter schedule 
 tickEvent's Core_ID is 1 ,enter schedule 
 tickEvent's Core_ID is 1 ,enter schedule 
 tickEvent's Core_ID is 1 ,enter schedule 
 tickEvent's Core_ID is 1 ,enter schedule 
 tickEvent's Core_ID is 1 ,enter schedule 
 tickEvent's Core_ID is 1 ,enter schedule 
 tickEvent's Core_ID is 1 ,enter schedule 
 tickEvent's Core_ID is 1 ,enter schedule 
 tickEvent's Core_ID is 1 ,enter schedule 
 tickEvent's Core_ID is 1 ,enter schedule 
 tickEvent's Core_ID is 1 ,enter schedule 
 tickEvent's Core_ID is 1 ,enter schedule 
 tickEvent's Core_ID is 1 ,enter schedule 
 tickEvent's Core_ID is 1 ,enter schedule 
 tickEvent's Core_ID is 1 ,enter schedule 
 tickEvent's Core_ID is 1 ,enter schedule 
 tickEvent's Core_ID is 1 ,enter schedule 
 tickEvent's Core_ID is 1 ,enter schedule 
 tickEvent's Core_ID is 1 ,enter schedule 
 tickEvent's Core_ID is 1 ,enter schedule 
 tickEvent's Core_ID is 1 ,enter schedule 
 tickEvent's Core_ID is 1 ,enter schedule 
 tickEvent's Core_ID is 1 ,enter schedule 
 tickEvent's Core_ID is 1 ,enter schedule 
 tickEvent's Core_ID is 1 ,enter schedule 
 tickEvent's Core_ID is 1 ,enter schedule 
 tickEvent's Core_ID is 1 ,enter schedule 
 tickEvent's Core_ID is 1 ,enter schedule 
 tickEvent's Core_ID is 1 ,enter schedule 
 tickEvent's Core_ID is 1 ,enter schedule 
 tickEvent's Core_ID is 1 ,enter schedule 
 tickEvent's Core_ID is 1 ,enter schedule 
 tickEvent's Core_ID is 1 ,enter schedule 
 tickEvent's Core_ID is 1 ,enter schedule 
 tickEvent's Core_ID is 1 ,enter schedule 
 tickEvent's Core_ID is 1 ,enter schedule 
 tickEvent's Core_ID is 1 ,enter schedule 
 tickEvent's Core_ID is 1 ,enter schedule 
 tickEvent's Core_ID is 1 ,enter schedule 
 tickEvent's Core_ID is 1 ,enter schedule 
 tickEvent's Core_ID is 1 ,enter schedule 
 tickEvent's Core_ID is 1 ,enter schedule 
 tickEvent's Core_ID is 1 ,enter schedule 
 tickEvent's Core_ID is 1 ,enter schedule 
 tickEvent's Core_ID is 1 ,enter schedule 
 tickEvent's Core_ID is 1 ,enter schedule 
 tickEvent's Core_ID is 1 ,enter schedule 
 tickEvent's Core_ID is 1 ,enter schedule 
 tickEvent's Core_ID is 1 ,enter schedule 
 tickEvent's Core_ID is 1 ,enter schedule 
 tickEvent's Core_ID is 1 ,enter schedule 
 tickEvent's Core_ID is 1 ,enter schedule 
 tickEvent's Core_ID is 1 ,enter schedule 
 tickEvent's Core_ID is 1 ,enter schedule 
 tickEvent's Core_ID is 1 ,enter schedule 
 tickEvent's Core_ID is 1 ,enter schedule 
 tickEvent's Core_ID is 1 ,enter schedule 
 tickEvent's Core_ID is 1 ,enter schedule 
 tickEvent's Core_ID is 1 ,enter schedule 
 tickEvent's Core_ID is 1 ,enter schedule 
 tickEvent's Core_ID is 1 ,enter schedule 
 tickEvent's Core_ID is 1 ,enter schedule 
 tickEvent's Core_ID is 1 ,enter schedule 
 tickEvent's Core_ID is 1 ,enter schedule 
 tickEvent's Core_ID is 1 ,enter schedule 
 tickEvent's Core_ID is 1 ,enter schedule 
 tickEvent's Core_ID is 1 ,enter schedule 
 tickEvent's Core_ID is 1 ,enter schedule 
 tickEvent's Core_ID is 1 ,enter schedule 
 tickEvent's Core_ID is 1 ,enter schedule 
 tickEvent's Core_ID is 1 ,enter schedule 
 tickEvent's Core_ID is 1 ,enter schedule 
 tickEvent's Core_ID is 1 ,enter schedule 
 tickEvent's Core_ID is 1 ,enter schedule 
 tickEvent's Core_ID is 1 ,enter schedule 
 tickEvent's Core_ID is 1 ,enter schedule 
 tickEvent's Core_ID is 1 ,enter schedule 
 tickEvent's Core_ID is 1 ,enter schedule 
 tickEvent's Core_ID is 1 ,enter schedule 
 tickEvent's Core_ID is 1 ,enter schedule 
 tickEvent's Core_ID is 1 ,enter schedule 
 tickEvent's Core_ID is 1 ,enter schedule 
 tickEvent's Core_ID is 1 ,enter schedule 
 tickEvent's Core_ID is 1 ,enter schedule 
 tickEvent's Core_ID is 1 ,enter schedule 
 tickEvent's Core_ID is 1 ,enter schedule 
 tickEvent's Core_ID is 1 ,enter schedule 
 tickEvent's Core_ID is 1 ,enter schedule 
 tickEvent's Core_ID is 1 ,enter schedule 
 tickEvent's Core_ID is 1 ,enter schedule 
 tickEvent's Core_ID is 1 ,enter schedule 
 tickEvent's Core_ID is 1 ,enter schedule 
 tickEvent's Core_ID is 1 ,enter schedule 
 tickEvent's Core_ID is 1 ,enter schedule 
 tickEvent's Core_ID is 1 ,enter schedule 
 tickEvent's Core_ID is 1 ,enter schedule 
 tickEvent's Core_ID is 1 ,enter schedule 
 tickEvent's Core_ID is 1 ,enter schedule 
 tickEvent's Core_ID is 1 ,enter schedule 
 tickEvent's Core_ID is 1 ,enter schedule 
 tickEvent's Core_ID is 1 ,enter schedule 
 tickEvent's Core_ID is 1 ,enter schedule 
 tickEvent's Core_ID is 1 ,enter schedule 
 tickEvent's Core_ID is 1 ,enter schedule 
 tickEvent's Core_ID is 1 ,enter schedule 
 tickEvent's Core_ID is 1 ,enter schedule 
 tickEvent's Core_ID is 1 ,enter schedule 
 tickEvent's Core_ID is 1 ,enter schedule 
 tickEvent's Core_ID is 1 ,enter schedule 
 tickEvent's Core_ID is 1 ,enter schedule 
 tickEvent's Core_ID is 1 ,enter schedule 
 tickEvent's Core_ID is 1 ,enter schedule 
 tickEvent's Core_ID is 1 ,enter schedule 
 tickEvent's Core_ID is 1 ,enter schedule 
 tickEvent's Core_ID is 1 ,enter schedule 
 tickEvent's Core_ID is 1 ,enter schedule 
 tickEvent's Core_ID is 1 ,enter schedule 
 tickEvent's Core_ID is 1 ,enter schedule 
 tickEvent's Core_ID is 1 ,enter schedule 
 tickEvent's Core_ID is 1 ,enter schedule 
 tickEvent's Core_ID is 1 ,enter schedule 
 tickEvent's Core_ID is 1 ,enter schedule 
 tickEvent's Core_ID is 1 ,enter schedule 
 tickEvent's Core_ID is 1 ,enter schedule 
 tickEvent's Core_ID is 1 ,enter schedule 
 tickEvent's Core_ID is 1 ,enter schedule 
 tickEvent's Core_ID is 1 ,enter schedule 
 tickEvent's Core_ID is 1 ,enter schedule 
 tickEvent's Core_ID is 1 ,enter schedule 
 tickEvent's Core_ID is 1 ,enter schedule 
 tickEvent's Core_ID is 1 ,enter schedule 
 tickEvent's Core_ID is 1 ,enter schedule 
 tickEvent's Core_ID is 1 ,enter schedule 
 tickEvent's Core_ID is 1 ,enter schedule 
 tickEvent's Core_ID is 1 ,enter schedule 
 tickEvent's Core_ID is 1 ,enter schedule 
 tickEvent's Core_ID is 1 ,enter schedule 
 tickEvent's Core_ID is 1 ,enter schedule 
 tickEvent's Core_ID is 1 ,enter schedule 
 tickEvent's Core_ID is 1 ,enter schedule 
 tickEvent's Core_ID is 1 ,enter schedule 
 tickEvent's Core_ID is 1 ,enter schedule 
 tickEvent's Core_ID is 1 ,enter schedule 
 tickEvent's Core_ID is 1 ,enter schedule 
 tickEvent's Core_ID is 1 ,enter schedule 
 tickEvent's Core_ID is 1 ,enter schedule 
 tickEvent's Core_ID is 1 ,enter schedule 
 tickEvent's Core_ID is 1 ,enter schedule 
 tickEvent's Core_ID is 1 ,enter schedule 
 tickEvent's Core_ID is 1 ,enter schedule 
 tickEvent's Core_ID is 1 ,enter schedule 
 tickEvent's Core_ID is 1 ,enter schedule 
 tickEvent's Core_ID is 1 ,enter schedule 
 tickEvent's Core_ID is 1 ,enter schedule 
 tickEvent's Core_ID is 1 ,enter schedule 
 tickEvent's Core_ID is 1 ,enter schedule 
 tickEvent's Core_ID is 1 ,enter schedule 
 tickEvent's Core_ID is 1 ,enter schedule 
 tickEvent's Core_ID is 1 ,enter schedule 
 tickEvent's Core_ID is 1 ,enter schedule 
 tickEvent's Core_ID is 1 ,enter schedule 
 tickEvent's Core_ID is 1 ,enter schedule 
 tickEvent's Core_ID is 1 ,enter schedule 
 tickEvent's Core_ID is 1 ,enter schedule 
 tickEvent's Core_ID is 1 ,enter schedule 
 tickEvent's Core_ID is 1 ,enter schedule 
 tickEvent's Core_ID is 1 ,enter schedule 
 tickEvent's Core_ID is 1 ,enter schedule 
 tickEvent's Core_ID is 1 ,enter schedule 
 tickEvent's Core_ID is 1 ,enter schedule 
 tickEvent's Core_ID is 1 ,enter schedule 
 tickEvent's Core_ID is 1 ,enter schedule 
 tickEvent's Core_ID is 1 ,enter schedule 
 tickEvent's Core_ID is 1 ,enter schedule 
 tickEvent's Core_ID is 1 ,enter schedule 
 tickEvent's Core_ID is 1 ,enter schedule 
 tickEvent's Core_ID is 1 ,enter schedule 
 tickEvent's Core_ID is 1 ,enter schedule 
 tickEvent's Core_ID is 1 ,enter schedule 
 tickEvent's Core_ID is 1 ,enter schedule 
 tickEvent's Core_ID is 1 ,enter schedule 
 tickEvent's Core_ID is 1 ,enter schedule 
 tickEvent's Core_ID is 1 ,enter schedule 
 tickEvent's Core_ID is 1 ,enter schedule 
 tickEvent's Core_ID is 1 ,enter schedule 
 tickEvent's Core_ID is 1 ,enter schedule 
 tickEvent's Core_ID is 1 ,enter schedule 
 tickEvent's Core_ID is 1 ,enter schedule 
 tickEvent's Core_ID is 1 ,enter schedule 
 tickEvent's Core_ID is 1 ,enter schedule 
 tickEvent's Core_ID is 1 ,enter schedule 
 tickEvent's Core_ID is 1 ,enter schedule 
 tickEvent's Core_ID is 1 ,enter schedule 
 tickEvent's Core_ID is 1 ,enter schedule 
 tickEvent's Core_ID is 1 ,enter schedule 
 tickEvent's Core_ID is 1 ,enter schedule 
 tickEvent's Core_ID is 1 ,enter schedule 
 tickEvent's Core_ID is 1 ,enter schedule 
 tickEvent's Core_ID is 1 ,enter schedule 
 tickEvent's Core_ID is 1 ,enter schedule 
 tickEvent's Core_ID is 1 ,enter schedule 
 tickEvent's Core_ID is 1 ,enter schedule 
 tickEvent's Core_ID is 1 ,enter schedule 
 tickEvent's Core_ID is 1 ,enter schedule 
 tickEvent's Core_ID is 1 ,enter schedule 
 tickEvent's Core_ID is 1 ,enter schedule 
 tickEvent's Core_ID is 1 ,enter schedule 
 tickEvent's Core_ID is 1 ,enter schedule 
 tickEvent's Core_ID is 1 ,enter schedule 
 tickEvent's Core_ID is 1 ,enter schedule 
 tickEvent's Core_ID is 1 ,enter schedule 
 tickEvent's Core_ID is 1 ,enter schedule 
 tickEvent's Core_ID is 1 ,enter schedule 
 tickEvent's Core_ID is 1 ,enter schedule 
 tickEvent's Core_ID is 1 ,enter schedule 
 tickEvent's Core_ID is 1 ,enter schedule 
 tickEvent's Core_ID is 1 ,enter schedule 
 tickEvent's Core_ID is 1 ,enter schedule 
 tickEvent's Core_ID is 1 ,enter schedule 
 tickEvent's Core_ID is 1 ,enter schedule 
 tickEvent's Core_ID is 1 ,enter schedule 
 tickEvent's Core_ID is 1 ,enter schedule 
 tickEvent's Core_ID is 1 ,enter schedule 
 tickEvent's Core_ID is 1 ,enter schedule 
 tickEvent's Core_ID is 1 ,enter schedule 
 tickEvent's Core_ID is 1 ,enter schedule 
 tickEvent's Core_ID is 1 ,enter schedule 
 tickEvent's Core_ID is 1 ,enter schedule 
 tickEvent's Core_ID is 1 ,enter schedule 
 tickEvent's Core_ID is 1 ,enter schedule 
 tickEvent's Core_ID is 1 ,enter schedule 
 tickEvent's Core_ID is 1 ,enter schedule 
 tickEvent's Core_ID is 1 ,enter schedule 
 tickEvent's Core_ID is 1 ,enter schedule 
 tickEvent's Core_ID is 1 ,enter schedule 
 tickEvent's Core_ID is 1 ,enter schedule 
 tickEvent's Core_ID is 1 ,enter schedule 
 tickEvent's Core_ID is 1 ,enter schedule 
 tickEvent's Core_ID is 1 ,enter schedule 
 tickEvent's Core_ID is 1 ,enter schedule 
 tickEvent's Core_ID is 1 ,enter schedule 
 tickEvent's Core_ID is 1 ,enter schedule 
 tickEvent's Core_ID is 1 ,enter schedule 
 tickEvent's Core_ID is 1 ,enter schedule 
 tickEvent's Core_ID is 1 ,enter schedule 
 tickEvent's Core_ID is 1 ,enter schedule 
 tickEvent's Core_ID is 1 ,enter schedule 
 tickEvent's Core_ID is 1 ,enter schedule 
 tickEvent's Core_ID is 1 ,enter schedule 
 tickEvent's Core_ID is 1 ,enter schedule 
 tickEvent's Core_ID is 1 ,enter schedule 
 tickEvent's Core_ID is 1 ,enter schedule 
 tickEvent's Core_ID is 1 ,enter schedule 
 tickEvent's Core_ID is 1 ,enter schedule 
 tickEvent's Core_ID is 1 ,enter schedule 
 tickEvent's Core_ID is 1 ,enter schedule 
 tickEvent's Core_ID is 1 ,enter schedule 
 tickEvent's Core_ID is 1 ,enter schedule 
 tickEvent's Core_ID is 1 ,enter schedule 
 tickEvent's Core_ID is 1 ,enter schedule 
 tickEvent's Core_ID is 1 ,enter schedule 
 tickEvent's Core_ID is 1 ,enter schedule 
 tickEvent's Core_ID is 1 ,enter schedule 
 tickEvent's Core_ID is 1 ,enter schedule 
 tickEvent's Core_ID is 1 ,enter schedule 
 tickEvent's Core_ID is 1 ,enter schedule 
 tickEvent's Core_ID is 1 ,enter schedule 
 tickEvent's Core_ID is 1 ,enter schedule 
 tickEvent's Core_ID is 1 ,enter schedule 
 tickEvent's Core_ID is 1 ,enter schedule 
 tickEvent's Core_ID is 1 ,enter schedule 
 tickEvent's Core_ID is 1 ,enter schedule 
 tickEvent's Core_ID is 1 ,enter schedule 
 tickEvent's Core_ID is 1 ,enter schedule 
 tickEvent's Core_ID is 1 ,enter schedule 
 tickEvent's Core_ID is 1 ,enter schedule 
 tickEvent's Core_ID is 1 ,enter schedule 
 tickEvent's Core_ID is 1 ,enter schedule 
 tickEvent's Core_ID is 1 ,enter schedule 
 tickEvent's Core_ID is 1 ,enter schedule 
 tickEvent's Core_ID is 1 ,enter schedule 
 tickEvent's Core_ID is 1 ,enter schedule 
 tickEvent's Core_ID is 1 ,enter schedule 
 tickEvent's Core_ID is 1 ,enter schedule 
 tickEvent's Core_ID is 1 ,enter schedule 
 tickEvent's Core_ID is 1 ,enter schedule 
 tickEvent's Core_ID is 1 ,enter schedule 
 tickEvent's Core_ID is 1 ,enter schedule 
 tickEvent's Core_ID is 1 ,enter schedule 
 tickEvent's Core_ID is 1 ,enter schedule 
 tickEvent's Core_ID is 1 ,enter schedule 
 tickEvent's Core_ID is 1 ,enter schedule 
 tickEvent's Core_ID is 1 ,enter schedule 
 tickEvent's Core_ID is 1 ,enter schedule 
 tickEvent's Core_ID is 1 ,enter schedule 
 tickEvent's Core_ID is 1 ,enter schedule 
 tickEvent's Core_ID is 1 ,enter schedule 
 tickEvent's Core_ID is 1 ,enter schedule 
 tickEvent's Core_ID is 1 ,enter schedule 
 tickEvent's Core_ID is 1 ,enter schedule 
 tickEvent's Core_ID is 1 ,enter schedule 
 tickEvent's Core_ID is 1 ,enter schedule 
 tickEvent's Core_ID is 1 ,enter schedule 
 tickEvent's Core_ID is 1 ,enter schedule 
 tickEvent's Core_ID is 1 ,enter schedule 
 tickEvent's Core_ID is 1 ,enter schedule 
 tickEvent's Core_ID is 1 ,enter schedule 
 tickEvent's Core_ID is 1 ,enter schedule 
 tickEvent's Core_ID is 1 ,enter schedule 
 tickEvent's Core_ID is 1 ,enter schedule 
 tickEvent's Core_ID is 1 ,enter schedule 
 tickEvent's Core_ID is 1 ,enter schedule 
 tickEvent's Core_ID is 1 ,enter schedule 
 tickEvent's Core_ID is 1 ,enter schedule 
 tickEvent's Core_ID is 1 ,enter schedule 
 tickEvent's Core_ID is 1 ,enter schedule 
 tickEvent's Core_ID is 1 ,enter schedule 
 tickEvent's Core_ID is 1 ,enter schedule 
 tickEvent's Core_ID is 1 ,enter schedule 
 tickEvent's Core_ID is 1 ,enter schedule 
 tickEvent's Core_ID is 1 ,enter schedule 
 tickEvent's Core_ID is 1 ,enter schedule 
 tickEvent's Core_ID is 1 ,enter schedule 
 tickEvent's Core_ID is 1 ,enter schedule 
 tickEvent's Core_ID is 1 ,enter schedule 
 tickEvent's Core_ID is 1 ,enter schedule 
 tickEvent's Core_ID is 1 ,enter schedule 
 tickEvent's Core_ID is 1 ,enter schedule 
 tickEvent's Core_ID is 1 ,enter schedule 
 tickEvent's Core_ID is 1 ,enter schedule 
 tickEvent's Core_ID is 1 ,enter schedule 
 tickEvent's Core_ID is 1 ,enter schedule 
 tickEvent's Core_ID is 1 ,enter schedule 
 tickEvent's Core_ID is 1 ,enter schedule 
 tickEvent's Core_ID is 1 ,enter schedule 
 tickEvent's Core_ID is 1 ,enter schedule 
 tickEvent's Core_ID is 1 ,enter schedule 
 tickEvent's Core_ID is 1 ,enter schedule 
 tickEvent's Core_ID is 1 ,enter schedule 
 tickEvent's Core_ID is 1 ,enter schedule 
 tickEvent's Core_ID is 1 ,enter schedule 
 tickEvent's Core_ID is 1 ,enter schedule 
 tickEvent's Core_ID is 1 ,enter schedule 
 tickEvent's Core_ID is 1 ,enter schedule 
 tickEvent's Core_ID is 1 ,enter schedule 
 tickEvent's Core_ID is 1 ,enter schedule 
 tickEvent's Core_ID is 1 ,enter schedule 
 tickEvent's Core_ID is 1 ,enter schedule 
 tickEvent's Core_ID is 1 ,enter schedule 
 tickEvent's Core_ID is 1 ,enter schedule 
 tickEvent's Core_ID is 1 ,enter schedule 
 tickEvent's Core_ID is 1 ,enter schedule 
 tickEvent's Core_ID is 1 ,enter schedule 
 tickEvent's Core_ID is 1 ,enter schedule 
 tickEvent's Core_ID is 1 ,enter schedule 
 tickEvent's Core_ID is 1 ,enter schedule 
 tickEvent's Core_ID is 1 ,enter schedule 
 tickEvent's Core_ID is 1 ,enter schedule 
 tickEvent's Core_ID is 1 ,enter schedule 
 tickEvent's Core_ID is 1 ,enter schedule 
 tickEvent's Core_ID is 1 ,enter schedule 
 tickEvent's Core_ID is 1 ,enter schedule 
 tickEvent's Core_ID is 1 ,enter schedule 
 tickEvent's Core_ID is 1 ,enter schedule 
 tickEvent's Core_ID is 1 ,enter schedule 
 tickEvent's Core_ID is 1 ,enter schedule 
 tickEvent's Core_ID is 1 ,enter schedule 
 tickEvent's Core_ID is 1 ,enter schedule 
 tickEvent's Core_ID is 1 ,enter schedule 
 tickEvent's Core_ID is 1 ,enter schedule 
 tickEvent's Core_ID is 1 ,enter schedule 
 tickEvent's Core_ID is 1 ,enter schedule 
 tickEvent's Core_ID is 1 ,enter schedule 
 tickEvent's Core_ID is 1 ,enter schedule 
 tickEvent's Core_ID is 1 ,enter schedule 
 tickEvent's Core_ID is 1 ,enter schedule 
 tickEvent's Core_ID is 1 ,enter schedule 
 tickEvent's Core_ID is 1 ,enter schedule 
 tickEvent's Core_ID is 1 ,enter schedule 
 tickEvent's Core_ID is 1 ,enter schedule 
 tickEvent's Core_ID is 1 ,enter schedule 
 tickEvent's Core_ID is 1 ,enter schedule 
 tickEvent's Core_ID is 1 ,enter schedule 
 tickEvent's Core_ID is 1 ,enter schedule 
 tickEvent's Core_ID is 1 ,enter schedule 
 tickEvent's Core_ID is 1 ,enter schedule 
 tickEvent's Core_ID is 1 ,enter schedule 
 tickEvent's Core_ID is 1 ,enter schedule 
 tickEvent's Core_ID is 1 ,enter schedule 
 tickEvent's Core_ID is 1 ,enter schedule 
 tickEvent's Core_ID is 1 ,enter schedule 
 tickEvent's Core_ID is 1 ,enter schedule 
 tickEvent's Core_ID is 1 ,enter schedule 
 tickEvent's Core_ID is 1 ,enter schedule 
 tickEvent's Core_ID is 1 ,enter schedule 
 tickEvent's Core_ID is 1 ,enter schedule 
 tickEvent's Core_ID is 1 ,enter schedule 
 tickEvent's Core_ID is 1 ,enter schedule 
 tickEvent's Core_ID is 1 ,enter schedule 
 tickEvent's Core_ID is 1 ,enter schedule 
 tickEvent's Core_ID is 1 ,enter schedule 
 tickEvent's Core_ID is 1 ,enter schedule 
 tickEvent's Core_ID is 1 ,enter schedule 
 tickEvent's Core_ID is 1 ,enter schedule 
 tickEvent's Core_ID is 1 ,enter schedule 
 tickEvent's Core_ID is 1 ,enter schedule 
 tickEvent's Core_ID is 1 ,enter schedule 
 tickEvent's Core_ID is 1 ,enter schedule 
 tickEvent's Core_ID is 1 ,enter schedule 
 tickEvent's Core_ID is 1 ,enter schedule 
 tickEvent's Core_ID is 1 ,enter schedule 
 tickEvent's Core_ID is 1 ,enter schedule 
 tickEvent's Core_ID is 1 ,enter schedule 
 tickEvent's Core_ID is 1 ,enter schedule 
 tickEvent's Core_ID is 1 ,enter schedule 
 tickEvent's Core_ID is 1 ,enter schedule 
 tickEvent's Core_ID is 1 ,enter schedule 
